data_image0
_chemical_formula_structural       C53N5Fe2
_chemical_formula_sum              "C53 N5 Fe2"
_cell_length_a       12.81
_cell_length_b       12.4
_cell_length_c       20
_cell_angle_alpha    90
_cell_angle_beta     90
_cell_angle_gamma    90

_space_group_name_H-M_alt    "P 1"
_space_group_IT_number       1

loop_
  _space_group_symop_operation_xyz
  'x, y, z'

loop_
  _atom_site_type_symbol
  _atom_site_label
  _atom_site_symmetry_multiplicity
  _atom_site_fract_x
  _atom_site_fract_y
  _atom_site_fract_z
  _atom_site_occupancy
  C   C1        1.0  0.22259  0.00029  0.49321  1.0000
  C   C2        1.0  0.05740  0.10058  0.48680  1.0000
  C   C3        1.0  0.11150  0.00009  0.48880  1.0000
  C   C4        1.0  0.27793  0.10138  0.49454  1.0000
  C   C5        1.0  0.22442  0.20323  0.49668  1.0000
  C   C6        1.0  0.05621  0.30056  0.49041  1.0000
  C   C7        1.0  0.11285  0.20138  0.49108  1.0000
  C   C8        1.0  0.28078  0.30403  0.50548  1.0000
  C   C9        1.0  0.22032  0.40445  0.50704  1.0000
  C   C10       1.0  0.05315  0.50094  0.49537  1.0000
  C   C11       1.0  0.10998  0.40116  0.49644  1.0000
  C   C12       1.0  0.21792  0.60020  0.51109  1.0000
  C   C13       1.0  0.05300  0.70016  0.49335  1.0000
  C   C14       1.0  0.10827  0.60087  0.49856  1.0000
  C   C15       1.0  0.27423  0.70114  0.51513  1.0000
  C   C16       1.0  0.22094  0.79943  0.50054  1.0000
  C   C17       1.0  0.05555  0.89989  0.48780  1.0000
  C   C18       1.0  0.10985  0.79966  0.49251  1.0000
  C   C19       1.0  0.27721  0.90030  0.49876  1.0000
  C   C20       1.0  0.55508  0.99950  0.49117  1.0000
  C   C21       1.0  0.38862  0.09959  0.49327  1.0000
  C   C22       1.0  0.44408  0.99973  0.49386  1.0000
  C   C23       1.0  0.61163  0.09797  0.48594  1.0000
  C   C24       1.0  0.55640  0.19661  0.49008  1.0000
  C   C25       1.0  0.39413  0.29858  0.50811  1.0000
  C   C26       1.0  0.44550  0.19846  0.49549  1.0000
  C   C27       1.0  0.61373  0.29417  0.49263  1.0000
  C   C28       1.0  0.56075  0.38882  0.51079  1.0000
  C   C29       1.0  0.38168  0.71079  0.53957  1.0000
  C   C30       1.0  0.55688  0.80382  0.51181  1.0000
  C   C31       1.0  0.38895  0.90017  0.50189  1.0000
  C   C32       1.0  0.44459  0.80337  0.51675  1.0000
  C   C33       1.0  0.61099  0.90120  0.49653  1.0000
  C   C34       1.0  0.88978  0.99960  0.48341  1.0000
  C   C35       1.0  0.72289  0.09867  0.48308  1.0000
  C   C36       1.0  0.77829  0.99919  0.48434  1.0000
  C   C37       1.0  0.94603  0.09971  0.48321  1.0000
  C   C38       1.0  0.89044  0.19932  0.48297  1.0000
  C   C39       1.0  0.72410  0.29702  0.48775  1.0000
  C   C40       1.0  0.77926  0.19819  0.48267  1.0000
  C   C41       1.0  0.94493  0.29994  0.48625  1.0000
  C   C42       1.0  0.88846  0.39952  0.48934  1.0000
  C   C43       1.0  0.71931  0.49410  0.50498  1.0000
  C   C44       1.0  0.77750  0.39778  0.49232  1.0000
  C   C45       1.0  0.94178  0.50037  0.49280  1.0000
  C   C46       1.0  0.88381  0.59957  0.49542  1.0000
  C   C47       1.0  0.71921  0.70288  0.50532  1.0000
  C   C48       1.0  0.77153  0.59869  0.50311  1.0000
  C   C49       1.0  0.94129  0.69917  0.49199  1.0000
  C   C50       1.0  0.88760  0.79963  0.48929  1.0000
  C   C51       1.0  0.72199  0.90036  0.49105  1.0000
  C   C52       1.0  0.77665  0.80014  0.49373  1.0000
  C   C53       1.0  0.94420  0.89938  0.48579  1.0000
  N   N1        1.0  0.26753  0.50217  0.51935  1.0000
  N   N2        1.0  0.45566  0.38740  0.52387  1.0000
  N   N3        1.0  0.61426  0.48377  0.52011  1.0000
  N   N4        1.0  0.41640  0.64605  0.58929  1.0000
  N   N5        1.0  0.61468  0.71053  0.52017  1.0000
  Fe  Fe1       1.0  0.38927  0.49789  0.57776  1.0000
  Fe  Fe2       1.0  0.54099  0.59769  0.56077  1.0000
