data_image0
_chemical_formula_structural       C52N4FeCr
_chemical_formula_sum              "C52 N4 Fe1 Cr1"
_cell_length_a       12.7488
_cell_length_b       12.5244
_cell_length_c       19.8963
_cell_angle_alpha    90.0149
_cell_angle_beta     89.9876
_cell_angle_gamma    90.0003

_space_group_name_H-M_alt    "P 1"
_space_group_IT_number       1

loop_
  _space_group_symop_operation_xyz
  'x, y, z'

loop_
  _atom_site_type_symbol
  _atom_site_label
  _atom_site_symmetry_multiplicity
  _atom_site_fract_x
  _atom_site_fract_y
  _atom_site_fract_z
  _atom_site_occupancy
  C   C1        1.0  0.22043  0.99983  0.50002  1.0000
  C   C2        1.0  0.05494  0.10036  0.50002  1.0000
  C   C3        1.0  0.10945  0.99961  0.50001  1.0000
  C   C4        1.0  0.27602  0.09925  0.50001  1.0000
  C   C5        1.0  0.22286  0.19992  0.49998  1.0000
  C   C6        1.0  0.05513  0.30041  0.50002  1.0000
  C   C7        1.0  0.11083  0.20032  0.50002  1.0000
  C   C8        1.0  0.28174  0.29916  0.49989  1.0000
  C   C9        1.0  0.22406  0.39949  0.49990  1.0000
  C   C10       1.0  0.05574  0.50083  0.50002  1.0000
  C   C11       1.0  0.11225  0.40052  0.50000  1.0000
  C   C12       1.0  0.28090  0.49987  0.49981  1.0000
  C   C13       1.0  0.22598  0.60110  0.49996  1.0000
  C   C14       1.0  0.05533  0.69940  0.50003  1.0000
  C   C15       1.0  0.11289  0.60042  0.50002  1.0000
  C   C16       1.0  0.28267  0.70209  0.49999  1.0000
  C   C17       1.0  0.22296  0.80033  0.50001  1.0000
  C   C18       1.0  0.05501  0.89908  0.50000  1.0000
  C   C19       1.0  0.11083  0.79929  0.50001  1.0000
  C   C20       1.0  0.27623  0.90057  0.50002  1.0000
  C   C21       1.0  0.55466  0.99915  0.50005  1.0000
  C   C22       1.0  0.38724  0.09710  0.50000  1.0000
  C   C23       1.0  0.44376  0.99915  0.50004  1.0000
  C   C24       1.0  0.61118  0.09709  0.50001  1.0000
  C   C25       1.0  0.55549  0.19397  0.49990  1.0000
  C   C26       1.0  0.44295  0.19397  0.49990  1.0000
  C   C27       1.0  0.55572  0.80350  0.50003  1.0000
  C   C28       1.0  0.38795  0.90121  0.50004  1.0000
  C   C29       1.0  0.44268  0.80350  0.50003  1.0000
  C   C30       1.0  0.61046  0.90120  0.50005  1.0000
  C   C31       1.0  0.88897  0.99961  0.50001  1.0000
  C   C32       1.0  0.72240  0.09924  0.50001  1.0000
  C   C33       1.0  0.77799  0.99982  0.50002  1.0000
  C   C34       1.0  0.94349  0.10035  0.50002  1.0000
  C   C35       1.0  0.88760  0.20031  0.50002  1.0000
  C   C36       1.0  0.71670  0.29915  0.49989  1.0000
  C   C37       1.0  0.77558  0.19990  0.49999  1.0000
  C   C38       1.0  0.94332  0.30040  0.50003  1.0000
  C   C39       1.0  0.88620  0.40051  0.50000  1.0000
  C   C40       1.0  0.71754  0.49985  0.49983  1.0000
  C   C41       1.0  0.77439  0.39947  0.49991  1.0000
  C   C42       1.0  0.94269  0.50082  0.50003  1.0000
  C   C43       1.0  0.88554  0.60041  0.50002  1.0000
  C   C44       1.0  0.71575  0.70208  0.49999  1.0000
  C   C45       1.0  0.77245  0.60109  0.49996  1.0000
  C   C46       1.0  0.94309  0.69939  0.50003  1.0000
  C   C47       1.0  0.88758  0.79928  0.50001  1.0000
  C   C48       1.0  0.72219  0.90056  0.50002  1.0000
  C   C49       1.0  0.77544  0.80031  0.50001  1.0000
  C   C50       1.0  0.94340  0.89907  0.50000  1.0000
  C   C51       1.0  0.39304  0.29483  0.49979  1.0000
  C   C52       1.0  0.60541  0.29482  0.49979  1.0000
  N   N1        1.0  0.38581  0.49980  0.49958  1.0000
  N   N2        1.0  0.61263  0.49979  0.49961  1.0000
  N   N3        1.0  0.39102  0.70668  0.49997  1.0000
  N   N4        1.0  0.60739  0.70667  0.49998  1.0000
  Fe  Fe1       1.0  0.49922  0.40680  0.49951  1.0000
  Cr  Cr1       1.0  0.49922  0.58982  0.49969  1.0000
