data_image0
_chemical_formula_structural       C49N6FeTi
_chemical_formula_sum              "C49 N6 Fe1 Ti1"
_cell_length_a       12.8512
_cell_length_b       12.3365
_cell_length_c       20.0429
_cell_angle_alpha    89.9923
_cell_angle_beta     89.9455
_cell_angle_gamma    88.8012

_space_group_name_H-M_alt    "P 1"
_space_group_IT_number       1

loop_
  _space_group_symop_operation_xyz
  'x, y, z'

loop_
  _atom_site_type_symbol
  _atom_site_label
  _atom_site_symmetry_multiplicity
  _atom_site_fract_x
  _atom_site_fract_y
  _atom_site_fract_z
  _atom_site_occupancy
  C   C1        1.0  0.22142  0.99792  0.50007  1.0000
  C   C2        1.0  0.05258  0.10026  0.50040  1.0000
  C   C3        1.0  0.11009  0.99971  0.50035  1.0000
  C   C4        1.0  0.27473  0.09784  0.49929  1.0000
  C   C5        1.0  0.21712  0.19786  0.49913  1.0000
  C   C6        1.0  0.05101  0.30065  0.50018  1.0000
  C   C7        1.0  0.10625  0.19974  0.50006  1.0000
  C   C8        1.0  0.27211  0.29554  0.49773  1.0000
  C   C9        1.0  0.21771  0.39810  0.49859  1.0000
  C   C10       1.0  0.05498  0.50118  0.50038  1.0000
  C   C11       1.0  0.10784  0.39912  0.49979  1.0000
  C   C12       1.0  0.22714  0.59394  0.50005  1.0000
  C   C13       1.0  0.05870  0.70024  0.50036  1.0000
  C   C14       1.0  0.11485  0.59923  0.50033  1.0000
  C   C15       1.0  0.28751  0.69502  0.50078  1.0000
  C   C16       1.0  0.22673  0.79574  0.50049  1.0000
  C   C17       1.0  0.05699  0.90006  0.50032  1.0000
  C   C18       1.0  0.11442  0.79873  0.50037  1.0000
  C   C19       1.0  0.27902  0.89730  0.50021  1.0000
  C   C20       1.0  0.55419  0.00323  0.49882  1.0000
  C   C21       1.0  0.38562  0.09949  0.49875  1.0000
  C   C22       1.0  0.44335  0.99986  0.49904  1.0000
  C   C23       1.0  0.60705  0.10467  0.49872  1.0000
  C   C24       1.0  0.54950  0.20517  0.49806  1.0000
  C   C25       1.0  0.43703  0.20230  0.49755  1.0000
  C   C26       1.0  0.60466  0.30635  0.49957  1.0000
  C   C27       1.0  0.55954  0.80124  0.49900  1.0000
  C   C28       1.0  0.39027  0.89802  0.49969  1.0000
  C   C29       1.0  0.44544  0.79547  0.50005  1.0000
  C   C30       1.0  0.61103  0.90323  0.49887  1.0000
  C   C31       1.0  0.88770  0.00299  0.49999  1.0000
  C   C32       1.0  0.71885  0.10600  0.49947  1.0000
  C   C33       1.0  0.77613  0.00504  0.49941  1.0000
  C   C34       1.0  0.94140  0.10267  0.50040  1.0000
  C   C35       1.0  0.88479  0.20390  0.50059  1.0000
  C   C36       1.0  0.71726  0.30885  0.50110  1.0000
  C   C37       1.0  0.77320  0.20686  0.50039  1.0000
  C   C38       1.0  0.93964  0.30333  0.50065  1.0000
  C   C39       1.0  0.88501  0.40541  0.50109  1.0000
  C   C40       1.0  0.77259  0.41064  0.50209  1.0000
  C   C41       1.0  0.94417  0.50303  0.50095  1.0000
  C   C42       1.0  0.88981  0.60457  0.50069  1.0000
  C   C43       1.0  0.72462  0.70732  0.49943  1.0000
  C   C44       1.0  0.77961  0.60509  0.50137  1.0000
  C   C45       1.0  0.94702  0.70265  0.50016  1.0000
  C   C46       1.0  0.89133  0.80334  0.49984  1.0000
  C   C47       1.0  0.72261  0.90498  0.49892  1.0000
  C   C48       1.0  0.78030  0.80526  0.49927  1.0000
  C   C49       1.0  0.94546  0.90261  0.50005  1.0000
  N   N1        1.0  0.27509  0.49268  0.49858  1.0000
  N   N2        1.0  0.37901  0.29599  0.49601  1.0000
  N   N3        1.0  0.55342  0.40144  0.50040  1.0000
  N   N4        1.0  0.39654  0.69652  0.50143  1.0000
  N   N5        1.0  0.61761  0.70737  0.49848  1.0000
  N   N6        1.0  0.72120  0.51135  0.50398  1.0000
  Fe  Fe1       1.0  0.41851  0.44897  0.49602  1.0000
  Ti  Ti1       1.0  0.55875  0.55378  0.51095  1.0000
