data_image0
_chemical_formula_structural       C52N4FeCr
_chemical_formula_sum              "C52 N4 Fe1 Cr1"
_cell_length_a       12.6979
_cell_length_b       12.5615
_cell_length_c       19.9177
_cell_angle_alpha    89.9981
_cell_angle_beta     90.0397
_cell_angle_gamma    89.6418

_space_group_name_H-M_alt    "P 1"
_space_group_IT_number       1

loop_
  _space_group_symop_operation_xyz
  'x, y, z'

loop_
  _atom_site_type_symbol
  _atom_site_label
  _atom_site_symmetry_multiplicity
  _atom_site_fract_x
  _atom_site_fract_y
  _atom_site_fract_z
  _atom_site_occupancy
  C   C1        1.0  0.22191  0.99766  0.49995  1.0000
  C   C2        1.0  0.05374  0.09782  0.49994  1.0000
  C   C3        1.0  0.11034  0.99826  0.49997  1.0000
  C   C4        1.0  0.27677  0.09657  0.49996  1.0000
  C   C5        1.0  0.21914  0.19376  0.50006  1.0000
  C   C6        1.0  0.05390  0.29757  0.50002  1.0000
  C   C7        1.0  0.10798  0.19643  0.49999  1.0000
  C   C8        1.0  0.27361  0.29131  0.50037  1.0000
  C   C9        1.0  0.06168  0.49806  0.50000  1.0000
  C   C10       1.0  0.11286  0.39487  0.50015  1.0000
  C   C11       1.0  0.06017  0.69803  0.49997  1.0000
  C   C12       1.0  0.11957  0.59855  0.49995  1.0000
  C   C13       1.0  0.27900  0.70132  0.49995  1.0000
  C   C14       1.0  0.22374  0.79975  0.49998  1.0000
  C   C15       1.0  0.05624  0.89861  0.50001  1.0000
  C   C16       1.0  0.11231  0.79897  0.49999  1.0000
  C   C17       1.0  0.27820  0.89921  0.49996  1.0000
  C   C18       1.0  0.55562  0.00012  0.49985  1.0000
  C   C19       1.0  0.38844  0.09915  0.49996  1.0000
  C   C20       1.0  0.44428  0.99969  0.49988  1.0000
  C   C21       1.0  0.61015  0.09946  0.49990  1.0000
  C   C22       1.0  0.55546  0.19829  0.50014  1.0000
  C   C23       1.0  0.44172  0.20044  0.50016  1.0000
  C   C24       1.0  0.55751  0.60722  0.50003  1.0000
  C   C25       1.0  0.39171  0.69989  0.49999  1.0000
  C   C26       1.0  0.61307  0.70495  0.49993  1.0000
  C   C27       1.0  0.55669  0.80286  0.49990  1.0000
  C   C28       1.0  0.38954  0.90009  0.49991  1.0000
  C   C29       1.0  0.44521  0.80071  0.49993  1.0000
  C   C30       1.0  0.61179  0.90149  0.49988  1.0000
  C   C31       1.0  0.88871  0.99952  0.49997  1.0000
  C   C32       1.0  0.72174  0.10011  0.49993  1.0000
  C   C33       1.0  0.77749  0.00021  0.49994  1.0000
  C   C34       1.0  0.94221  0.09938  0.49992  1.0000
  C   C35       1.0  0.88688  0.20023  0.49992  1.0000
  C   C36       1.0  0.71609  0.30009  0.50019  1.0000
  C   C37       1.0  0.77488  0.20061  0.49998  1.0000
  C   C38       1.0  0.94212  0.29988  0.49997  1.0000
  C   C39       1.0  0.88707  0.40063  0.50001  1.0000
  C   C40       1.0  0.72154  0.50498  0.50009  1.0000
  C   C41       1.0  0.77294  0.40145  0.50012  1.0000
  C   C42       1.0  0.94743  0.49888  0.49997  1.0000
  C   C43       1.0  0.89227  0.59951  0.49994  1.0000
  C   C44       1.0  0.72479  0.70230  0.49994  1.0000
  C   C45       1.0  0.78037  0.60196  0.49995  1.0000
  C   C46       1.0  0.94779  0.69868  0.49997  1.0000
  C   C47       1.0  0.89156  0.79925  0.50000  1.0000
  C   C48       1.0  0.72334  0.90062  0.49993  1.0000
  C   C49       1.0  0.77970  0.80086  0.49996  1.0000
  C   C50       1.0  0.94493  0.89922  0.50002  1.0000
  C   C51       1.0  0.38386  0.29917  0.50053  1.0000
  C   C52       1.0  0.44509  0.59904  0.50009  1.0000
  N   N1        1.0  0.21958  0.38780  0.50044  1.0000
  N   N2        1.0  0.22967  0.60319  0.49990  1.0000
  N   N3        1.0  0.60727  0.29494  0.50046  1.0000
  N   N4        1.0  0.61523  0.51291  0.50022  1.0000
  Fe  Fe1       1.0  0.32862  0.48270  0.50024  1.0000
  Cr  Cr1       1.0  0.50070  0.41640  0.50119  1.0000
