data_image0
_chemical_formula_structural       C54N4FeSc
_chemical_formula_sum              "C54 N4 Fe1 Sc1"
_cell_length_a       12.9349
_cell_length_b       12.3333
_cell_length_c       19.9554
_cell_angle_alpha    92.8627
_cell_angle_beta     92.0931
_cell_angle_gamma    90.9052

_space_group_name_H-M_alt    "P 1"
_space_group_IT_number       1

loop_
  _space_group_symop_operation_xyz
  'x, y, z'

loop_
  _atom_site_type_symbol
  _atom_site_label
  _atom_site_symmetry_multiplicity
  _atom_site_fract_x
  _atom_site_fract_y
  _atom_site_fract_z
  _atom_site_occupancy
  C   C1        1.0  0.22133  0.00365  0.49969  1.0000
  C   C2        1.0  0.05647  0.10243  0.49926  1.0000
  C   C3        1.0  0.11039  0.00281  0.49904  1.0000
  C   C4        1.0  0.27831  0.10440  0.50017  1.0000
  C   C5        1.0  0.22516  0.20607  0.50047  1.0000
  C   C6        1.0  0.05802  0.30251  0.49973  1.0000
  C   C7        1.0  0.11361  0.20350  0.49998  1.0000
  C   C8        1.0  0.28232  0.30887  0.50090  1.0000
  C   C9        1.0  0.22462  0.40979  0.50140  1.0000
  C   C10       1.0  0.05455  0.50209  0.49937  1.0000
  C   C11       1.0  0.11295  0.40444  0.50017  1.0000
  C   C12       1.0  0.21611  0.60460  0.50087  1.0000
  C   C13       1.0  0.05200  0.70298  0.49803  1.0000
  C   C14       1.0  0.10711  0.60395  0.49910  1.0000
  C   C15       1.0  0.27173  0.70566  0.50079  1.0000
  C   C16       1.0  0.21763  0.80415  0.49932  1.0000
  C   C17       1.0  0.05305  0.90251  0.49820  1.0000
  C   C18       1.0  0.10732  0.80338  0.49826  1.0000
  C   C19       1.0  0.27527  0.90341  0.49986  1.0000
  C   C20       1.0  0.55407  0.99600  0.49972  1.0000
  C   C21       1.0  0.38913  0.10098  0.50006  1.0000
  C   C22       1.0  0.44329  0.99917  0.50003  1.0000
  C   C23       1.0  0.61115  0.09667  0.49931  1.0000
  C   C24       1.0  0.55735  0.19679  0.49923  1.0000
  C   C25       1.0  0.39374  0.30375  0.50005  1.0000
  C   C26       1.0  0.44598  0.20133  0.49967  1.0000
  C   C27       1.0  0.61558  0.29525  0.49868  1.0000
  C   C28       1.0  0.56131  0.39465  0.49736  1.0000
  C   C29       1.0  0.61691  0.49548  0.49680  1.0000
  C   C30       1.0  0.60847  0.69293  0.49826  1.0000
  C   C31       1.0  0.54999  0.79192  0.49964  1.0000
  C   C32       1.0  0.38609  0.89890  0.50026  1.0000
  C   C33       1.0  0.43737  0.79531  0.50083  1.0000
  C   C34       1.0  0.60718  0.89462  0.49932  1.0000
  C   C35       1.0  0.88743  0.99986  0.49834  1.0000
  C   C36       1.0  0.72215  0.09752  0.49891  1.0000
  C   C37       1.0  0.77611  0.99782  0.49856  1.0000
  C   C38       1.0  0.94501  0.10044  0.49883  1.0000
  C   C39       1.0  0.89053  0.19945  0.49887  1.0000
  C   C40       1.0  0.72524  0.29663  0.49848  1.0000
  C   C41       1.0  0.77962  0.19753  0.49874  1.0000
  C   C42       1.0  0.94695  0.30044  0.49906  1.0000
  C   C43       1.0  0.89100  0.39905  0.49855  1.0000
  C   C44       1.0  0.72673  0.49637  0.49768  1.0000
  C   C45       1.0  0.78091  0.39751  0.49814  1.0000
  C   C46       1.0  0.94450  0.50050  0.49847  1.0000
  C   C47       1.0  0.88833  0.59986  0.49761  1.0000
  C   C48       1.0  0.71982  0.69657  0.49732  1.0000
  C   C49       1.0  0.77851  0.59841  0.49726  1.0000
  C   C50       1.0  0.94204  0.70137  0.49750  1.0000
  C   C51       1.0  0.88591  0.79992  0.49745  1.0000
  C   C52       1.0  0.71878  0.89699  0.49845  1.0000
  C   C53       1.0  0.77462  0.79802  0.49763  1.0000
  C   C54       1.0  0.94214  0.90078  0.49787  1.0000
  N   N1        1.0  0.27314  0.51121  0.50336  1.0000
  N   N2        1.0  0.45334  0.39999  0.49902  1.0000
  N   N3        1.0  0.55875  0.59080  0.49721  1.0000
  N   N4        1.0  0.37813  0.70101  0.50289  1.0000
  Fe  Fe1       1.0  0.41603  0.55119  0.50432  1.0000
  Sc  Sc1       1.0  0.50072  0.51149  0.58967  1.0000
