data_image0
_chemical_formula_structural       C54N2FeV
_chemical_formula_sum              "C54 N2 Fe1 V1"
_cell_length_a       12.7902
_cell_length_b       12.4561
_cell_length_c       19.9407
_cell_angle_alpha    90.0056
_cell_angle_beta     89.9601
_cell_angle_gamma    90.0436

_space_group_name_H-M_alt    "P 1"
_space_group_IT_number       1

loop_
  _space_group_symop_operation_xyz
  'x, y, z'

loop_
  _atom_site_type_symbol
  _atom_site_label
  _atom_site_symmetry_multiplicity
  _atom_site_fract_x
  _atom_site_fract_y
  _atom_site_fract_z
  _atom_site_occupancy
  C   C1        1.0  0.22091  0.00030  0.50089  1.0000
  C   C2        1.0  0.05496  0.10058  0.50096  1.0000
  C   C3        1.0  0.11003  0.00022  0.50127  1.0000
  C   C4        1.0  0.27705  0.09999  0.50057  1.0000
  C   C5        1.0  0.22328  0.20054  0.50068  1.0000
  C   C6        1.0  0.05441  0.29984  0.50111  1.0000
  C   C7        1.0  0.11096  0.20035  0.50078  1.0000
  C   C8        1.0  0.28175  0.29996  0.50092  1.0000
  C   C9        1.0  0.22320  0.39925  0.50140  1.0000
  C   C10       1.0  0.05428  0.49889  0.50201  1.0000
  C   C11       1.0  0.11122  0.39952  0.50151  1.0000
  C   C12       1.0  0.27931  0.49975  0.50116  1.0000
  C   C13       1.0  0.22206  0.59938  0.50188  1.0000
  C   C14       1.0  0.05465  0.69939  0.50289  1.0000
  C   C15       1.0  0.11091  0.59907  0.50258  1.0000
  C   C16       1.0  0.27846  0.70017  0.50161  1.0000
  C   C17       1.0  0.22156  0.79983  0.50236  1.0000
  C   C18       1.0  0.05505  0.89966  0.50201  1.0000
  C   C19       1.0  0.11011  0.79960  0.50272  1.0000
  C   C20       1.0  0.27623  0.90013  0.50098  1.0000
  C   C21       1.0  0.55464  0.99957  0.50020  1.0000
  C   C22       1.0  0.38851  0.09943  0.50075  1.0000
  C   C23       1.0  0.44351  0.99974  0.49997  1.0000
  C   C24       1.0  0.61115  0.09817  0.50113  1.0000
  C   C25       1.0  0.55658  0.19643  0.50166  1.0000
  C   C26       1.0  0.44461  0.19827  0.50123  1.0000
  C   C27       1.0  0.55566  0.80208  0.49826  1.0000
  C   C28       1.0  0.38722  0.90078  0.49950  1.0000
  C   C29       1.0  0.44224  0.80109  0.49856  1.0000
  C   C30       1.0  0.61091  0.90105  0.49979  1.0000
  C   C31       1.0  0.88883  0.99992  0.50156  1.0000
  C   C32       1.0  0.72219  0.09871  0.50134  1.0000
  C   C33       1.0  0.77811  0.99947  0.50150  1.0000
  C   C34       1.0  0.94330  0.10057  0.50118  1.0000
  C   C35       1.0  0.88694  0.20018  0.50120  1.0000
  C   C36       1.0  0.71504  0.29778  0.50116  1.0000
  C   C37       1.0  0.77497  0.19943  0.50132  1.0000
  C   C38       1.0  0.94244  0.29995  0.50133  1.0000
  C   C39       1.0  0.88458  0.39916  0.50133  1.0000
  C   C40       1.0  0.71698  0.49991  0.49566  1.0000
  C   C41       1.0  0.77182  0.39876  0.50031  1.0000
  C   C42       1.0  0.94211  0.49874  0.50153  1.0000
  C   C43       1.0  0.88642  0.59892  0.50122  1.0000
  C   C44       1.0  0.71989  0.70015  0.49930  1.0000
  C   C45       1.0  0.77544  0.59948  0.49830  1.0000
  C   C46       1.0  0.94329  0.69928  0.50245  1.0000
  C   C47       1.0  0.88840  0.79966  0.50225  1.0000
  C   C48       1.0  0.72219  0.89987  0.50122  1.0000
  C   C49       1.0  0.77692  0.79984  0.50162  1.0000
  C   C50       1.0  0.94397  0.89960  0.50200  1.0000
  C   C51       1.0  0.39384  0.30024  0.50099  1.0000
  C   C52       1.0  0.38896  0.49358  0.49870  1.0000
  C   C53       1.0  0.38831  0.70151  0.49837  1.0000
  C   C54       1.0  0.61006  0.70360  0.49662  1.0000
  N   N1        1.0  0.60688  0.29424  0.50186  1.0000
  N   N2        1.0  0.61234  0.50234  0.48734  1.0000
  Fe  Fe1       1.0  0.50157  0.41342  0.50167  1.0000
  V   V1        1.0  0.50315  0.60124  0.46283  1.0000
