data_image0
_chemical_formula_structural       C49N6FeCr
_chemical_formula_sum              "C49 N6 Fe1 Cr1"
_cell_length_a       12.8463
_cell_length_b       12.3127
_cell_length_c       20.0899
_cell_angle_alpha    89.9366
_cell_angle_beta     89.9178
_cell_angle_gamma    88.7182

_space_group_name_H-M_alt    "P 1"
_space_group_IT_number       1

loop_
  _space_group_symop_operation_xyz
  'x, y, z'

loop_
  _atom_site_type_symbol
  _atom_site_label
  _atom_site_symmetry_multiplicity
  _atom_site_fract_x
  _atom_site_fract_y
  _atom_site_fract_z
  _atom_site_occupancy
  C   C1        1.0  0.22150  0.99737  0.50024  1.0000
  C   C2        1.0  0.05222  0.10006  0.50025  1.0000
  C   C3        1.0  0.11014  0.99933  0.50019  1.0000
  C   C4        1.0  0.27469  0.09755  0.50006  1.0000
  C   C5        1.0  0.21678  0.19750  0.49998  1.0000
  C   C6        1.0  0.05052  0.30065  0.50024  1.0000
  C   C7        1.0  0.10587  0.19955  0.50025  1.0000
  C   C8        1.0  0.27146  0.29533  0.49936  1.0000
  C   C9        1.0  0.21715  0.39769  0.49945  1.0000
  C   C10       1.0  0.05480  0.50119  0.50002  1.0000
  C   C11       1.0  0.10756  0.39902  0.49995  1.0000
  C   C12       1.0  0.22743  0.59345  0.49960  1.0000
  C   C13       1.0  0.05883  0.69991  0.49995  1.0000
  C   C14       1.0  0.11499  0.59877  0.49986  1.0000
  C   C15       1.0  0.28802  0.69384  0.49989  1.0000
  C   C16       1.0  0.22715  0.79495  0.50006  1.0000
  C   C17       1.0  0.05704  0.89968  0.49999  1.0000
  C   C18       1.0  0.11480  0.79822  0.49996  1.0000
  C   C19       1.0  0.27936  0.89663  0.50021  1.0000
  C   C20       1.0  0.55405  0.00313  0.49994  1.0000
  C   C21       1.0  0.38548  0.09957  0.49985  1.0000
  C   C22       1.0  0.44342  0.99950  0.50004  1.0000
  C   C23       1.0  0.60672  0.10531  0.49978  1.0000
  C   C24       1.0  0.54900  0.20639  0.49946  1.0000
  C   C25       1.0  0.43682  0.20275  0.49930  1.0000
  C   C26       1.0  0.60401  0.30869  0.49964  1.0000
  C   C27       1.0  0.55926  0.80003  0.50032  1.0000
  C   C28       1.0  0.39057  0.89723  0.50019  1.0000
  C   C29       1.0  0.44607  0.79436  0.50019  1.0000
  C   C30       1.0  0.61090  0.90244  0.50009  1.0000
  C   C31       1.0  0.88734  0.00311  0.49989  1.0000
  C   C32       1.0  0.71837  0.10648  0.49992  1.0000
  C   C33       1.0  0.77573  0.00525  0.49988  1.0000
  C   C34       1.0  0.94103  0.10277  0.50013  1.0000
  C   C35       1.0  0.88419  0.20428  0.50027  1.0000
  C   C36       1.0  0.71662  0.30987  0.50024  1.0000
  C   C37       1.0  0.77261  0.20748  0.50016  1.0000
  C   C38       1.0  0.93912  0.30360  0.50037  1.0000
  C   C39       1.0  0.88440  0.40592  0.50045  1.0000
  C   C40       1.0  0.77202  0.41135  0.50052  1.0000
  C   C41       1.0  0.94409  0.50318  0.50031  1.0000
  C   C42       1.0  0.88993  0.60461  0.50033  1.0000
  C   C43       1.0  0.72489  0.70731  0.50049  1.0000
  C   C44       1.0  0.77978  0.60561  0.50058  1.0000
  C   C45       1.0  0.94716  0.70261  0.50006  1.0000
  C   C46       1.0  0.89124  0.80334  0.49995  1.0000
  C   C47       1.0  0.72230  0.90502  0.49998  1.0000
  C   C48       1.0  0.78013  0.80528  0.50011  1.0000
  C   C49       1.0  0.94538  0.90252  0.49986  1.0000
  N   N1        1.0  0.27580  0.49170  0.49911  1.0000
  N   N2        1.0  0.37829  0.29675  0.49872  1.0000
  N   N3        1.0  0.55237  0.40410  0.49923  1.0000
  N   N4        1.0  0.39728  0.69480  0.50000  1.0000
  N   N5        1.0  0.61778  0.70508  0.50062  1.0000
  N   N6        1.0  0.72068  0.51241  0.50071  1.0000
  Fe  Fe1       1.0  0.41935  0.44895  0.49800  1.0000
  Cr  Cr1       1.0  0.56600  0.55640  0.50051  1.0000
