data_image0
_chemical_formula_structural       C52N4Fe2
_chemical_formula_sum              "C52 N4 Fe2"
_cell_length_a       13.0493
_cell_length_b       12.3073
_cell_length_c       19.7811
_cell_angle_alpha    89.9933
_cell_angle_beta     89.9781
_cell_angle_gamma    90.1266

_space_group_name_H-M_alt    "P 1"
_space_group_IT_number       1

loop_
  _space_group_symop_operation_xyz
  'x, y, z'

loop_
  _atom_site_type_symbol
  _atom_site_label
  _atom_site_symmetry_multiplicity
  _atom_site_fract_x
  _atom_site_fract_y
  _atom_site_fract_z
  _atom_site_occupancy
  C   C1        1.0  0.22660  0.00228  0.49978  1.0000
  C   C2        1.0  0.05687  0.09968  0.49998  1.0000
  C   C3        1.0  0.11421  0.00082  0.49991  1.0000
  C   C4        1.0  0.28217  0.10569  0.49958  1.0000
  C   C5        1.0  0.22156  0.20518  0.49956  1.0000
  C   C6        1.0  0.05063  0.29846  0.50008  1.0000
  C   C7        1.0  0.11023  0.20077  0.49989  1.0000
  C   C8        1.0  0.20895  0.39792  0.49959  1.0000
  C   C9        1.0  0.04838  0.50007  0.50023  1.0000
  C   C10       1.0  0.10189  0.39934  0.50006  1.0000
  C   C11       1.0  0.26337  0.49775  0.49931  1.0000
  C   C12       1.0  0.21111  0.59947  0.49977  1.0000
  C   C13       1.0  0.05231  0.70147  0.50015  1.0000
  C   C14       1.0  0.10309  0.60010  0.50014  1.0000
  C   C15       1.0  0.22255  0.79829  0.49985  1.0000
  C   C16       1.0  0.05755  0.90086  0.50001  1.0000
  C   C17       1.0  0.11141  0.80002  0.50002  1.0000
  C   C18       1.0  0.28004  0.89989  0.49981  1.0000
  C   C19       1.0  0.55755  0.99874  0.49994  1.0000
  C   C20       1.0  0.39465  0.10479  0.49954  1.0000
  C   C21       1.0  0.44699  0.00055  0.49979  1.0000
  C   C22       1.0  0.61404  0.09814  0.49993  1.0000
  C   C23       1.0  0.55936  0.19690  0.49959  1.0000
  C   C24       1.0  0.61368  0.30002  0.49955  1.0000
  C   C25       1.0  0.61040  0.50113  0.49950  1.0000
  C   C26       1.0  0.61590  0.69761  0.49978  1.0000
  C   C27       1.0  0.55851  0.79944  0.49989  1.0000
  C   C28       1.0  0.39185  0.89827  0.49981  1.0000
  C   C29       1.0  0.61385  0.89932  0.50003  1.0000
  C   C30       1.0  0.89071  0.99974  0.50012  1.0000
  C   C31       1.0  0.72428  0.09874  0.50008  1.0000
  C   C32       1.0  0.78003  0.99954  0.50015  1.0000
  C   C33       1.0  0.94595  0.09947  0.50010  1.0000
  C   C34       1.0  0.88841  0.19838  0.50014  1.0000
  C   C35       1.0  0.72311  0.29859  0.49989  1.0000
  C   C36       1.0  0.77872  0.19851  0.50007  1.0000
  C   C37       1.0  0.94132  0.29885  0.50018  1.0000
  C   C38       1.0  0.88603  0.39921  0.50018  1.0000
  C   C39       1.0  0.72147  0.49987  0.49984  1.0000
  C   C40       1.0  0.77661  0.39941  0.49998  1.0000
  C   C41       1.0  0.94034  0.49969  0.50025  1.0000
  C   C42       1.0  0.88716  0.60044  0.50017  1.0000
  C   C43       1.0  0.72474  0.70011  0.49995  1.0000
  C   C44       1.0  0.77788  0.59958  0.49999  1.0000
  C   C45       1.0  0.94271  0.70088  0.50017  1.0000
  C   C46       1.0  0.88929  0.80122  0.50011  1.0000
  C   C47       1.0  0.72423  0.90016  0.50011  1.0000
  C   C48       1.0  0.77951  0.80082  0.50008  1.0000
  C   C49       1.0  0.94651  0.90049  0.50009  1.0000
  C   C50       1.0  0.27220  0.69513  0.49962  1.0000
  C   C51       1.0  0.55588  0.39849  0.49924  1.0000
  C   C52       1.0  0.44914  0.79864  0.49979  1.0000
  N   N1        1.0  0.26775  0.30563  0.49925  1.0000
  N   N2        1.0  0.45329  0.19988  0.49930  1.0000
  N   N3        1.0  0.36583  0.49680  0.49858  1.0000
  N   N4        1.0  0.56184  0.60223  0.49949  1.0000
  Fe  Fe1       1.0  0.41330  0.35455  0.49881  1.0000
  Fe  Fe2       1.0  0.41250  0.64684  0.49920  1.0000
