data_image0
_chemical_formula_structural       C54N2FeTi
_chemical_formula_sum              "C54 N2 Fe1 Ti1"
_cell_length_a       12.6977
_cell_length_b       12.5247
_cell_length_c       19.9768
_cell_angle_alpha    90.016
_cell_angle_beta     90.1609
_cell_angle_gamma    89.5369

_space_group_name_H-M_alt    "P 1"
_space_group_IT_number       1

loop_
  _space_group_symop_operation_xyz
  'x, y, z'

loop_
  _atom_site_type_symbol
  _atom_site_label
  _atom_site_symmetry_multiplicity
  _atom_site_fract_x
  _atom_site_fract_y
  _atom_site_fract_z
  _atom_site_occupancy
  C   C1        1.0  0.22164  0.99721  0.50369  1.0000
  C   C2        1.0  0.05461  0.09874  0.50212  1.0000
  C   C3        1.0  0.11017  0.99834  0.50269  1.0000
  C   C4        1.0  0.27645  0.09558  0.50469  1.0000
  C   C5        1.0  0.22171  0.19481  0.50342  1.0000
  C   C6        1.0  0.05576  0.29859  0.49980  1.0000
  C   C7        1.0  0.11004  0.19781  0.50176  1.0000
  C   C8        1.0  0.27972  0.29184  0.50107  1.0000
  C   C9        1.0  0.05914  0.49739  0.49573  1.0000
  C   C10       1.0  0.11549  0.39626  0.49558  1.0000
  C   C11       1.0  0.05888  0.69785  0.49920  1.0000
  C   C12       1.0  0.11620  0.59717  0.49643  1.0000
  C   C13       1.0  0.28021  0.70078  0.49774  1.0000
  C   C14       1.0  0.22380  0.79950  0.50082  1.0000
  C   C15       1.0  0.05618  0.89857  0.50159  1.0000
  C   C16       1.0  0.11227  0.79842  0.50079  1.0000
  C   C17       1.0  0.27820  0.89855  0.50258  1.0000
  C   C18       1.0  0.55631  0.99902  0.50342  1.0000
  C   C19       1.0  0.38785  0.09567  0.50533  1.0000
  C   C20       1.0  0.44478  0.99735  0.50412  1.0000
  C   C21       1.0  0.61015  0.09869  0.50464  1.0000
  C   C22       1.0  0.55411  0.19773  0.50776  1.0000
  C   C23       1.0  0.44130  0.19441  0.50664  1.0000
  C   C24       1.0  0.55908  0.60550  0.49306  1.0000
  C   C25       1.0  0.39320  0.70019  0.49691  1.0000
  C   C26       1.0  0.61413  0.70391  0.49810  1.0000
  C   C27       1.0  0.55782  0.80178  0.49994  1.0000
  C   C28       1.0  0.38987  0.89872  0.50237  1.0000
  C   C29       1.0  0.44641  0.79991  0.49988  1.0000
  C   C30       1.0  0.61266  0.90064  0.50136  1.0000
  C   C31       1.0  0.88916  0.99991  0.50104  1.0000
  C   C32       1.0  0.72161  0.10052  0.50313  1.0000
  C   C33       1.0  0.77795  0.00053  0.50148  1.0000
  C   C34       1.0  0.94295  0.10005  0.50142  1.0000
  C   C35       1.0  0.88697  0.20069  0.50146  1.0000
  C   C36       1.0  0.71506  0.30155  0.50432  1.0000
  C   C37       1.0  0.77449  0.20152  0.50275  1.0000
  C   C38       1.0  0.94322  0.29996  0.50059  1.0000
  C   C39       1.0  0.88687  0.40033  0.49941  1.0000
  C   C40       1.0  0.72059  0.50343  0.49595  1.0000
  C   C41       1.0  0.77375  0.40130  0.50028  1.0000
  C   C42       1.0  0.94659  0.49854  0.49760  1.0000
  C   C43       1.0  0.89138  0.59928  0.49793  1.0000
  C   C44       1.0  0.72522  0.70187  0.49786  1.0000
  C   C45       1.0  0.77956  0.60104  0.49679  1.0000
  C   C46       1.0  0.94692  0.69875  0.49905  1.0000
  C   C47       1.0  0.89141  0.79944  0.49961  1.0000
  C   C48       1.0  0.72402  0.90063  0.50066  1.0000
  C   C49       1.0  0.78004  0.80075  0.49923  1.0000
  C   C50       1.0  0.94503  0.89946  0.50068  1.0000
  C   C51       1.0  0.22726  0.39162  0.49169  1.0000
  C   C52       1.0  0.22798  0.60147  0.49386  1.0000
  C   C53       1.0  0.60276  0.29951  0.50979  1.0000
  C   C54       1.0  0.44703  0.59987  0.49133  1.0000
  N   N1        1.0  0.38865  0.29020  0.50499  1.0000
  N   N2        1.0  0.61317  0.50933  0.49175  1.0000
  Fe  Fe1       1.0  0.32454  0.49653  0.46332  1.0000
  Ti  Ti1       1.0  0.48395  0.42661  0.52129  1.0000
