data_image0
_chemical_formula_structural       C54N4FeTi
_chemical_formula_sum              "C54 N4 Fe1 Ti1"
_cell_length_a       12.9336
_cell_length_b       12.3365
_cell_length_c       19.9511
_cell_angle_alpha    92.7365
_cell_angle_beta     92.1934
_cell_angle_gamma    90.8759

_space_group_name_H-M_alt    "P 1"
_space_group_IT_number       1

loop_
  _space_group_symop_operation_xyz
  'x, y, z'

loop_
  _atom_site_type_symbol
  _atom_site_label
  _atom_site_symmetry_multiplicity
  _atom_site_fract_x
  _atom_site_fract_y
  _atom_site_fract_z
  _atom_site_occupancy
  C   C1        1.0  0.22140  0.00353  0.49971  1.0000
  C   C2        1.0  0.05650  0.10235  0.49909  1.0000
  C   C3        1.0  0.11041  0.00274  0.49890  1.0000
  C   C4        1.0  0.27839  0.10418  0.50026  1.0000
  C   C5        1.0  0.22512  0.20585  0.50047  1.0000
  C   C6        1.0  0.05811  0.30243  0.49970  1.0000
  C   C7        1.0  0.11363  0.20336  0.49990  1.0000
  C   C8        1.0  0.28227  0.30855  0.50094  1.0000
  C   C9        1.0  0.22461  0.40955  0.50144  1.0000
  C   C10       1.0  0.05455  0.50212  0.49948  1.0000
  C   C11       1.0  0.11303  0.40427  0.50021  1.0000
  C   C12       1.0  0.21611  0.60469  0.50113  1.0000
  C   C13       1.0  0.05203  0.70303  0.49813  1.0000
  C   C14       1.0  0.10709  0.60396  0.49928  1.0000
  C   C15       1.0  0.27165  0.70561  0.50105  1.0000
  C   C16       1.0  0.21761  0.80415  0.49944  1.0000
  C   C17       1.0  0.05310  0.90256  0.49804  1.0000
  C   C18       1.0  0.10733  0.80337  0.49828  1.0000
  C   C19       1.0  0.27531  0.90331  0.49991  1.0000
  C   C20       1.0  0.55417  0.99610  0.49982  1.0000
  C   C21       1.0  0.38916  0.10071  0.50027  1.0000
  C   C22       1.0  0.44335  0.99901  0.50018  1.0000
  C   C23       1.0  0.61117  0.09673  0.49949  1.0000
  C   C24       1.0  0.55741  0.19686  0.49966  1.0000
  C   C25       1.0  0.39352  0.30302  0.50040  1.0000
  C   C26       1.0  0.44600  0.20104  0.50004  1.0000
  C   C27       1.0  0.61561  0.29524  0.49890  1.0000
  C   C28       1.0  0.56148  0.39466  0.49754  1.0000
  C   C29       1.0  0.61702  0.49538  0.49698  1.0000
  C   C30       1.0  0.60897  0.69359  0.49858  1.0000
  C   C31       1.0  0.55020  0.79211  0.49969  1.0000
  C   C32       1.0  0.38619  0.89884  0.50033  1.0000
  C   C33       1.0  0.43750  0.79527  0.50088  1.0000
  C   C34       1.0  0.60730  0.89483  0.49930  1.0000
  C   C35       1.0  0.88750  0.99992  0.49806  1.0000
  C   C36       1.0  0.72222  0.09761  0.49886  1.0000
  C   C37       1.0  0.77617  0.99796  0.49838  1.0000
  C   C38       1.0  0.94507  0.10039  0.49858  1.0000
  C   C39       1.0  0.89062  0.19948  0.49871  1.0000
  C   C40       1.0  0.72541  0.29671  0.49850  1.0000
  C   C41       1.0  0.77972  0.19759  0.49865  1.0000
  C   C42       1.0  0.94701  0.30038  0.49900  1.0000
  C   C43       1.0  0.89105  0.39900  0.49860  1.0000
  C   C44       1.0  0.72677  0.49648  0.49799  1.0000
  C   C45       1.0  0.78100  0.39740  0.49824  1.0000
  C   C46       1.0  0.94455  0.50052  0.49863  1.0000
  C   C47       1.0  0.88834  0.59998  0.49787  1.0000
  C   C48       1.0  0.72004  0.69685  0.49763  1.0000
  C   C49       1.0  0.77850  0.59849  0.49770  1.0000
  C   C50       1.0  0.94202  0.70142  0.49761  1.0000
  C   C51       1.0  0.88601  0.80007  0.49741  1.0000
  C   C52       1.0  0.71890  0.89713  0.49836  1.0000
  C   C53       1.0  0.77483  0.79827  0.49765  1.0000
  C   C54       1.0  0.94221  0.90085  0.49764  1.0000
  N   N1        1.0  0.27296  0.51106  0.50350  1.0000
  N   N2        1.0  0.45338  0.39926  0.50007  1.0000
  N   N3        1.0  0.55943  0.59130  0.49813  1.0000
  N   N4        1.0  0.37815  0.70123  0.50298  1.0000
  Fe  Fe1       1.0  0.41597  0.55110  0.50365  1.0000
  Ti  Ti1       1.0  0.49680  0.51221  0.58413  1.0000
