data_image0
_chemical_formula_structural       C53N5CoFe
_chemical_formula_sum              "C53 N5 Co1 Fe1"
_cell_length_a       12.81
_cell_length_b       12.4
_cell_length_c       20
_cell_angle_alpha    90
_cell_angle_beta     90
_cell_angle_gamma    90

_space_group_name_H-M_alt    "P 1"
_space_group_IT_number       1

loop_
  _space_group_symop_operation_xyz
  'x, y, z'

loop_
  _atom_site_type_symbol
  _atom_site_label
  _atom_site_symmetry_multiplicity
  _atom_site_fract_x
  _atom_site_fract_y
  _atom_site_fract_z
  _atom_site_occupancy
  C   C1        1.0  0.22196  0.00075  0.49052  1.0000
  C   C2        1.0  0.05690  0.10082  0.48775  1.0000
  C   C3        1.0  0.11073  0.00017  0.48843  1.0000
  C   C4        1.0  0.27759  0.10184  0.49101  1.0000
  C   C5        1.0  0.22441  0.20363  0.49531  1.0000
  C   C6        1.0  0.05635  0.30080  0.49307  1.0000
  C   C7        1.0  0.11252  0.20151  0.49194  1.0000
  C   C8        1.0  0.28101  0.30398  0.50434  1.0000
  C   C9        1.0  0.22162  0.40490  0.50841  1.0000
  C   C10       1.0  0.05319  0.50080  0.49910  1.0000
  C   C11       1.0  0.11034  0.40149  0.49925  1.0000
  C   C12       1.0  0.21839  0.60041  0.51301  1.0000
  C   C13       1.0  0.05254  0.69992  0.49602  1.0000
  C   C14       1.0  0.10824  0.60080  0.50154  1.0000
  C   C15       1.0  0.27321  0.70267  0.51488  1.0000
  C   C16       1.0  0.21981  0.80027  0.49940  1.0000
  C   C17       1.0  0.05456  0.89998  0.48862  1.0000
  C   C18       1.0  0.10874  0.79983  0.49319  1.0000
  C   C19       1.0  0.27640  0.90091  0.49550  1.0000
  C   C20       1.0  0.55461  0.99880  0.48660  1.0000
  C   C21       1.0  0.38828  0.10008  0.48820  1.0000
  C   C22       1.0  0.44362  0.00015  0.48839  1.0000
  C   C23       1.0  0.61138  0.09743  0.48279  1.0000
  C   C24       1.0  0.55618  0.19621  0.48642  1.0000
  C   C25       1.0  0.39399  0.29848  0.50479  1.0000
  C   C26       1.0  0.44526  0.19872  0.49085  1.0000
  C   C27       1.0  0.61359  0.29358  0.49136  1.0000
  C   C28       1.0  0.56037  0.38750  0.51051  1.0000
  C   C29       1.0  0.38092  0.71538  0.53713  1.0000
  C   C30       1.0  0.55557  0.80287  0.50928  1.0000
  C   C31       1.0  0.38828  0.90125  0.49732  1.0000
  C   C32       1.0  0.44355  0.80548  0.51330  1.0000
  C   C33       1.0  0.61006  0.90001  0.49324  1.0000
  C   C34       1.0  0.88905  0.99930  0.48504  1.0000
  C   C35       1.0  0.72261  0.09815  0.48236  1.0000
  C   C36       1.0  0.77766  0.99857  0.48463  1.0000
  C   C37       1.0  0.94544  0.09957  0.48508  1.0000
  C   C38       1.0  0.89022  0.19920  0.48525  1.0000
  C   C39       1.0  0.72398  0.29640  0.48869  1.0000
  C   C40       1.0  0.77908  0.19774  0.48361  1.0000
  C   C41       1.0  0.94494  0.29980  0.48938  1.0000
  C   C42       1.0  0.88860  0.39920  0.49283  1.0000
  C   C43       1.0  0.71947  0.49282  0.50801  1.0000
  C   C44       1.0  0.77762  0.39704  0.49483  1.0000
  C   C45       1.0  0.94154  0.50010  0.49700  1.0000
  C   C46       1.0  0.88333  0.59915  0.49963  1.0000
  C   C47       1.0  0.71703  0.70216  0.50791  1.0000
  C   C48       1.0  0.77073  0.59802  0.50670  1.0000
  C   C49       1.0  0.94069  0.69875  0.49564  1.0000
  C   C50       1.0  0.88668  0.79897  0.49224  1.0000
  C   C51       1.0  0.72119  0.89951  0.49066  1.0000
  C   C52       1.0  0.77541  0.79924  0.49591  1.0000
  C   C53       1.0  0.94314  0.89899  0.48775  1.0000
  N   N1        1.0  0.26902  0.50237  0.52134  1.0000
  N   N2        1.0  0.45469  0.38661  0.52184  1.0000
  N   N3        1.0  0.61467  0.48115  0.52332  1.0000
  N   N4        1.0  0.41802  0.64701  0.58180  1.0000
  N   N5        1.0  0.61156  0.70950  0.52090  1.0000
  Co  Co1       1.0  0.40182  0.50884  0.56194  1.0000
  Fe  Fe1       1.0  0.55261  0.59170  0.57581  1.0000
