data_image0
_chemical_formula_structural       C54N2ZnFe
_chemical_formula_sum              "C54 N2 Zn1 Fe1"
_cell_length_a       13.1157
_cell_length_b       12.3544
_cell_length_c       19.606
_cell_angle_alpha    89.9989
_cell_angle_beta     89.9878
_cell_angle_gamma    90.0109

_space_group_name_H-M_alt    "P 1"
_space_group_IT_number       1

loop_
  _space_group_symop_operation_xyz
  'x, y, z'

loop_
  _atom_site_type_symbol
  _atom_site_label
  _atom_site_symmetry_multiplicity
  _atom_site_fract_x
  _atom_site_fract_y
  _atom_site_fract_z
  _atom_site_occupancy
  C   C1        1.0  0.22502  0.99976  0.49980  1.0000
  C   C2        1.0  0.05568  0.09881  0.49996  1.0000
  C   C3        1.0  0.11265  0.99973  0.49992  1.0000
  C   C4        1.0  0.27971  0.10110  0.49966  1.0000
  C   C5        1.0  0.22036  0.20088  0.49967  1.0000
  C   C6        1.0  0.05121  0.29818  0.50003  1.0000
  C   C7        1.0  0.10936  0.19935  0.49988  1.0000
  C   C8        1.0  0.20895  0.39923  0.49964  1.0000
  C   C9        1.0  0.04786  0.50019  0.50018  1.0000
  C   C10       1.0  0.10129  0.39957  0.50000  1.0000
  C   C11       1.0  0.26214  0.50100  0.49928  1.0000
  C   C12       1.0  0.20868  0.60177  0.49974  1.0000
  C   C13       1.0  0.05113  0.70172  0.50015  1.0000
  C   C14       1.0  0.10162  0.60082  0.50012  1.0000
  C   C15       1.0  0.22112  0.79788  0.49981  1.0000
  C   C16       1.0  0.05604  0.90056  0.50003  1.0000
  C   C17       1.0  0.11029  0.80005  0.50002  1.0000
  C   C18       1.0  0.27981  0.89802  0.49978  1.0000
  C   C19       1.0  0.55743  0.00023  0.49991  1.0000
  C   C20       1.0  0.39211  0.10226  0.49959  1.0000
  C   C21       1.0  0.44664  0.99964  0.49979  1.0000
  C   C22       1.0  0.61457  0.09923  0.49991  1.0000
  C   C23       1.0  0.55961  0.19943  0.49965  1.0000
  C   C24       1.0  0.61711  0.30232  0.49965  1.0000
  C   C25       1.0  0.61413  0.49828  0.49961  1.0000
  C   C26       1.0  0.61621  0.69833  0.49981  1.0000
  C   C27       1.0  0.55986  0.80116  0.49986  1.0000
  C   C28       1.0  0.39219  0.89719  0.49978  1.0000
  C   C29       1.0  0.61433  0.90089  0.49998  1.0000
  C   C30       1.0  0.89018  0.99976  0.50010  1.0000
  C   C31       1.0  0.72417  0.09888  0.50002  1.0000
  C   C32       1.0  0.77983  0.99979  0.50009  1.0000
  C   C33       1.0  0.94539  0.09904  0.50006  1.0000
  C   C34       1.0  0.88857  0.19836  0.50008  1.0000
  C   C35       1.0  0.72576  0.29933  0.49988  1.0000
  C   C36       1.0  0.77947  0.19861  0.50001  1.0000
  C   C37       1.0  0.94200  0.29860  0.50012  1.0000
  C   C38       1.0  0.88780  0.39904  0.50014  1.0000
  C   C39       1.0  0.72415  0.49947  0.49986  1.0000
  C   C40       1.0  0.77914  0.39960  0.49997  1.0000
  C   C41       1.0  0.94059  0.50004  0.50021  1.0000
  C   C42       1.0  0.88719  0.60077  0.50016  1.0000
  C   C43       1.0  0.72499  0.70045  0.49997  1.0000
  C   C44       1.0  0.77849  0.60015  0.50000  1.0000
  C   C45       1.0  0.94197  0.70114  0.50018  1.0000
  C   C46       1.0  0.88855  0.80134  0.50013  1.0000
  C   C47       1.0  0.72406  0.90076  0.50007  1.0000
  C   C48       1.0  0.77943  0.80092  0.50008  1.0000
  C   C49       1.0  0.94562  0.90055  0.50010  1.0000
  C   C50       1.0  0.26519  0.30405  0.49951  1.0000
  C   C51       1.0  0.27071  0.69488  0.49949  1.0000
  C   C52       1.0  0.45241  0.19823  0.49936  1.0000
  C   C53       1.0  0.55995  0.59989  0.49955  1.0000
  C   C54       1.0  0.45103  0.79916  0.49974  1.0000
  N   N1        1.0  0.56549  0.39754  0.49951  1.0000
  N   N2        1.0  0.36232  0.50493  0.49841  1.0000
  Zn  Zn1       1.0  0.41355  0.35578  0.49888  1.0000
  Fe  Fe1       1.0  0.41529  0.64626  0.49900  1.0000
