data_image0
_chemical_formula_structural       C54N2FeV
_chemical_formula_sum              "C54 N2 Fe1 V1"
_cell_length_a       12.6884
_cell_length_b       12.5668
_cell_length_c       19.9242
_cell_angle_alpha    89.9905
_cell_angle_beta     90.0502
_cell_angle_gamma    89.5962

_space_group_name_H-M_alt    "P 1"
_space_group_IT_number       1

loop_
  _space_group_symop_operation_xyz
  'x, y, z'

loop_
  _atom_site_type_symbol
  _atom_site_label
  _atom_site_symmetry_multiplicity
  _atom_site_fract_x
  _atom_site_fract_y
  _atom_site_fract_z
  _atom_site_occupancy
  C   C1        1.0  0.22244  0.99769  0.50114  1.0000
  C   C2        1.0  0.05431  0.09811  0.50044  1.0000
  C   C3        1.0  0.11069  0.99830  0.50078  1.0000
  C   C4        1.0  0.27721  0.09666  0.50080  1.0000
  C   C5        1.0  0.22067  0.19468  0.50011  1.0000
  C   C6        1.0  0.05320  0.29751  0.50041  1.0000
  C   C7        1.0  0.10894  0.19724  0.50024  1.0000
  C   C8        1.0  0.27626  0.29311  0.49964  1.0000
  C   C9        1.0  0.05682  0.49780  0.49826  1.0000
  C   C10       1.0  0.11017  0.39611  0.49869  1.0000
  C   C11       1.0  0.05944  0.69759  0.49994  1.0000
  C   C12       1.0  0.11682  0.59679  0.49824  1.0000
  C   C13       1.0  0.28009  0.69986  0.50013  1.0000
  C   C14       1.0  0.22425  0.79902  0.50127  1.0000
  C   C15       1.0  0.05683  0.89843  0.50063  1.0000
  C   C16       1.0  0.11269  0.79819  0.50072  1.0000
  C   C17       1.0  0.27837  0.89881  0.50145  1.0000
  C   C18       1.0  0.55603  0.99990  0.50070  1.0000
  C   C19       1.0  0.38904  0.09856  0.50116  1.0000
  C   C20       1.0  0.44450  0.99909  0.50113  1.0000
  C   C21       1.0  0.61083  0.09916  0.50141  1.0000
  C   C22       1.0  0.55627  0.19833  0.50379  1.0000
  C   C23       1.0  0.44330  0.19899  0.50202  1.0000
  C   C24       1.0  0.55931  0.60681  0.49496  1.0000
  C   C25       1.0  0.39331  0.69987  0.50023  1.0000
  C   C26       1.0  0.61412  0.70506  0.49872  1.0000
  C   C27       1.0  0.55763  0.80264  0.50016  1.0000
  C   C28       1.0  0.38989  0.89963  0.50123  1.0000
  C   C29       1.0  0.44622  0.80037  0.50080  1.0000
  C   C30       1.0  0.61241  0.90145  0.50018  1.0000
  C   C31       1.0  0.88938  0.99945  0.50019  1.0000
  C   C32       1.0  0.72206  0.09967  0.50119  1.0000
  C   C33       1.0  0.77812  0.00014  0.50028  1.0000
  C   C34       1.0  0.94263  0.09948  0.50041  1.0000
  C   C35       1.0  0.88632  0.19993  0.50072  1.0000
  C   C36       1.0  0.71459  0.29958  0.50341  1.0000
  C   C37       1.0  0.77425  0.20049  0.50151  1.0000
  C   C38       1.0  0.94129  0.29915  0.50088  1.0000
  C   C39       1.0  0.88527  0.39953  0.50057  1.0000
  C   C40       1.0  0.72096  0.50438  0.49723  1.0000
  C   C41       1.0  0.77197  0.40054  0.50094  1.0000
  C   C42       1.0  0.94476  0.49869  0.49944  1.0000
  C   C43       1.0  0.89101  0.59990  0.49930  1.0000
  C   C44       1.0  0.72521  0.70251  0.49846  1.0000
  C   C45       1.0  0.77977  0.60202  0.49804  1.0000
  C   C46       1.0  0.94727  0.69886  0.49982  1.0000
  C   C47       1.0  0.89175  0.79946  0.49971  1.0000
  C   C48       1.0  0.72389  0.90071  0.49982  1.0000
  C   C49       1.0  0.78020  0.80112  0.49931  1.0000
  C   C50       1.0  0.94555  0.89934  0.50008  1.0000
  C   C51       1.0  0.21960  0.39076  0.49668  1.0000
  C   C52       1.0  0.22936  0.59935  0.49685  1.0000
  C   C53       1.0  0.38871  0.29875  0.50195  1.0000
  C   C54       1.0  0.44741  0.59950  0.49596  1.0000
  N   N1        1.0  0.60580  0.29572  0.50756  1.0000
  N   N2        1.0  0.61517  0.51162  0.49307  1.0000
  Fe  Fe1       1.0  0.33030  0.48176  0.48093  1.0000
  V   V1        1.0  0.49165  0.42746  0.51882  1.0000
