data_image0
_chemical_formula_structural       C52N5FeCr
_chemical_formula_sum              "C52 N5 Fe1 Cr1"
_cell_length_a       12.8255
_cell_length_b       12.4495
_cell_length_c       19.9034
_cell_angle_alpha    91.2619
_cell_angle_beta     90.5881
_cell_angle_gamma    90.6271

_space_group_name_H-M_alt    "P 1"
_space_group_IT_number       1

loop_
  _space_group_symop_operation_xyz
  'x, y, z'

loop_
  _atom_site_type_symbol
  _atom_site_label
  _atom_site_symmetry_multiplicity
  _atom_site_fract_x
  _atom_site_fract_y
  _atom_site_fract_z
  _atom_site_occupancy
  C   C1        1.0  0.22218  0.00291  0.49889  1.0000
  C   C2        1.0  0.05762  0.10255  0.49731  1.0000
  C   C3        1.0  0.11095  0.00209  0.49759  1.0000
  C   C4        1.0  0.27829  0.10383  0.50164  1.0000
  C   C5        1.0  0.22544  0.20562  0.50402  1.0000
  C   C6        1.0  0.05781  0.30292  0.49894  1.0000
  C   C7        1.0  0.11354  0.20368  0.49993  1.0000
  C   C8        1.0  0.28245  0.30685  0.51040  1.0000
  C   C9        1.0  0.22365  0.40802  0.50913  1.0000
  C   C10       1.0  0.05441  0.50350  0.50023  1.0000
  C   C11       1.0  0.11200  0.40427  0.50168  1.0000
  C   C12       1.0  0.22092  0.60447  0.50463  1.0000
  C   C13       1.0  0.05281  0.70204  0.49737  1.0000
  C   C14       1.0  0.10947  0.60396  0.50025  1.0000
  C   C15       1.0  0.27897  0.70403  0.49996  1.0000
  C   C16       1.0  0.22135  0.80221  0.49790  1.0000
  C   C17       1.0  0.05494  0.90169  0.49647  1.0000
  C   C18       1.0  0.10954  0.80165  0.49730  1.0000
  C   C19       1.0  0.27645  0.90343  0.49791  1.0000
  C   C20       1.0  0.55517  0.00087  0.49709  1.0000
  C   C21       1.0  0.38902  0.10139  0.50109  1.0000
  C   C22       1.0  0.44426  0.00220  0.49833  1.0000
  C   C23       1.0  0.61266  0.09862  0.49753  1.0000
  C   C24       1.0  0.55777  0.19624  0.50193  1.0000
  C   C25       1.0  0.39523  0.29995  0.51358  1.0000
  C   C26       1.0  0.44664  0.19943  0.50478  1.0000
  C   C27       1.0  0.61591  0.29300  0.50225  1.0000
  C   C28       1.0  0.56293  0.38899  0.51140  1.0000
  C   C29       1.0  0.55404  0.80410  0.49673  1.0000
  C   C30       1.0  0.38797  0.90314  0.49784  1.0000
  C   C31       1.0  0.44179  0.80428  0.49738  1.0000
  C   C32       1.0  0.60988  0.90224  0.49611  1.0000
  C   C33       1.0  0.88978  0.00068  0.49465  1.0000
  C   C34       1.0  0.72382  0.09934  0.49530  1.0000
  C   C35       1.0  0.77827  0.99994  0.49460  1.0000
  C   C36       1.0  0.94631  0.10103  0.49522  1.0000
  C   C37       1.0  0.89164  0.20059  0.49512  1.0000
  C   C38       1.0  0.72589  0.29703  0.49757  1.0000
  C   C39       1.0  0.78063  0.19869  0.49518  1.0000
  C   C40       1.0  0.94607  0.30164  0.49662  1.0000
  C   C41       1.0  0.88943  0.40092  0.49754  1.0000
  C   C42       1.0  0.71828  0.49577  0.50132  1.0000
  C   C43       1.0  0.77834  0.39872  0.49870  1.0000
  C   C44       1.0  0.94247  0.50243  0.49835  1.0000
  C   C45       1.0  0.88347  0.60086  0.49761  1.0000
  C   C46       1.0  0.71439  0.70149  0.49767  1.0000
  C   C47       1.0  0.76972  0.59963  0.49863  1.0000
  C   C48       1.0  0.94061  0.70047  0.49659  1.0000
  C   C49       1.0  0.88606  0.80023  0.49580  1.0000
  C   C50       1.0  0.72130  0.90100  0.49541  1.0000
  C   C51       1.0  0.77426  0.80007  0.49615  1.0000
  C   C52       1.0  0.94325  0.90051  0.49538  1.0000
  N   N1        1.0  0.27205  0.50779  0.51590  1.0000
  N   N2        1.0  0.45808  0.38955  0.52563  1.0000
  N   N3        1.0  0.61133  0.48706  0.50687  1.0000
  N   N4        1.0  0.38821  0.70640  0.49819  1.0000
  N   N5        1.0  0.60622  0.70666  0.49716  1.0000
  Fe  Fe1       1.0  0.40192  0.51563  0.55767  1.0000
  Cr  Cr1       1.0  0.49755  0.59326  0.49943  1.0000
