data_image0
_chemical_formula_structural       C50N6CoFe
_chemical_formula_sum              "C50 N6 Co1 Fe1"
_cell_length_a       12.6531
_cell_length_b       12.5375
_cell_length_c       20.026
_cell_angle_alpha    89.9955
_cell_angle_beta     90.0382
_cell_angle_gamma    89.8391

_space_group_name_H-M_alt    "P 1"
_space_group_IT_number       1

loop_
  _space_group_symop_operation_xyz
  'x, y, z'

loop_
  _atom_site_type_symbol
  _atom_site_label
  _atom_site_symmetry_multiplicity
  _atom_site_fract_x
  _atom_site_fract_y
  _atom_site_fract_z
  _atom_site_occupancy
  C   C1        1.0  0.22163  0.99870  0.49997  1.0000
  C   C2        1.0  0.05516  0.09968  0.49997  1.0000
  C   C3        1.0  0.11010  0.99952  0.49998  1.0000
  C   C4        1.0  0.27730  0.09638  0.49999  1.0000
  C   C5        1.0  0.22283  0.19534  0.50004  1.0000
  C   C6        1.0  0.05811  0.30043  0.50000  1.0000
  C   C7        1.0  0.11096  0.19873  0.49998  1.0000
  C   C8        1.0  0.28125  0.29175  0.50021  1.0000
  C   C9        1.0  0.06448  0.49793  0.50002  1.0000
  C   C10       1.0  0.12082  0.39667  0.50007  1.0000
  C   C11       1.0  0.05852  0.69868  0.50000  1.0000
  C   C12       1.0  0.11944  0.60050  0.50003  1.0000
  C   C13       1.0  0.27796  0.70337  0.50003  1.0000
  C   C14       1.0  0.22287  0.80151  0.50001  1.0000
  C   C15       1.0  0.05571  0.89948  0.50001  1.0000
  C   C16       1.0  0.11115  0.79983  0.50001  1.0000
  C   C17       1.0  0.27762  0.90023  0.49998  1.0000
  C   C18       1.0  0.55616  0.99868  0.49992  1.0000
  C   C19       1.0  0.38898  0.09630  0.50000  1.0000
  C   C20       1.0  0.44493  0.99824  0.49993  1.0000
  C   C21       1.0  0.61092  0.09737  0.49997  1.0000
  C   C22       1.0  0.55566  0.19537  0.50011  1.0000
  C   C23       1.0  0.44307  0.19436  0.50016  1.0000
  C   C24       1.0  0.55209  0.60759  0.50013  1.0000
  C   C25       1.0  0.39055  0.70406  0.50004  1.0000
  C   C26       1.0  0.61069  0.70389  0.49998  1.0000
  C   C27       1.0  0.55634  0.80264  0.49994  1.0000
  C   C28       1.0  0.38880  0.90043  0.49994  1.0000
  C   C29       1.0  0.44466  0.80223  0.49997  1.0000
  C   C30       1.0  0.61212  0.90033  0.49992  1.0000
  C   C31       1.0  0.88940  0.99994  0.50000  1.0000
  C   C32       1.0  0.72264  0.09929  0.49997  1.0000
  C   C33       1.0  0.77802  0.99970  0.49997  1.0000
  C   C34       1.0  0.94318  0.10051  0.49997  1.0000
  C   C35       1.0  0.88816  0.20137  0.49997  1.0000
  C   C36       1.0  0.71438  0.29861  0.50011  1.0000
  C   C37       1.0  0.77535  0.20057  0.49999  1.0000
  C   C38       1.0  0.94393  0.30161  0.49998  1.0000
  C   C39       1.0  0.88599  0.40087  0.50002  1.0000
  C   C40       1.0  0.71365  0.50283  0.50016  1.0000
  C   C41       1.0  0.76940  0.40122  0.50011  1.0000
  C   C42       1.0  0.94797  0.49830  0.49999  1.0000
  C   C43       1.0  0.89010  0.59769  0.49997  1.0000
  C   C44       1.0  0.72272  0.70045  0.49997  1.0000
  C   C45       1.0  0.77607  0.59896  0.50001  1.0000
  C   C46       1.0  0.94574  0.69791  0.49997  1.0000
  C   C47       1.0  0.89056  0.79864  0.49998  1.0000
  C   C48       1.0  0.72359  0.89959  0.49995  1.0000
  C   C49       1.0  0.77853  0.79942  0.49996  1.0000
  C   C50       1.0  0.94435  0.89926  0.50001  1.0000
  N   N1        1.0  0.23254  0.38960  0.50021  1.0000
  N   N2        1.0  0.22811  0.60619  0.50006  1.0000
  N   N3        1.0  0.39011  0.29109  0.50037  1.0000
  N   N4        1.0  0.60552  0.29256  0.50022  1.0000
  N   N5        1.0  0.60230  0.51046  0.50033  1.0000
  N   N6        1.0  0.44291  0.60698  0.50015  1.0000
  Co  Co1       1.0  0.34049  0.49563  0.50024  1.0000
  Fe  Fe1       1.0  0.48968  0.40614  0.50056  1.0000
