data_image0
_chemical_formula_structural       C49N6FeV
_chemical_formula_sum              "C49 N6 Fe1 V1"
_cell_length_a       12.8415
_cell_length_b       12.3182
_cell_length_c       20.0879
_cell_angle_alpha    89.8904
_cell_angle_beta     90.0178
_cell_angle_gamma    88.7863

_space_group_name_H-M_alt    "P 1"
_space_group_IT_number       1

loop_
  _space_group_symop_operation_xyz
  'x, y, z'

loop_
  _atom_site_type_symbol
  _atom_site_label
  _atom_site_symmetry_multiplicity
  _atom_site_fract_x
  _atom_site_fract_y
  _atom_site_fract_z
  _atom_site_occupancy
  C   C1        1.0  0.22144  0.99781  0.50022  1.0000
  C   C2        1.0  0.05237  0.10018  0.50034  1.0000
  C   C3        1.0  0.11011  0.99961  0.50023  1.0000
  C   C4        1.0  0.27470  0.09789  0.50005  1.0000
  C   C5        1.0  0.21697  0.19788  0.49992  1.0000
  C   C6        1.0  0.05075  0.30066  0.50022  1.0000
  C   C7        1.0  0.10608  0.19970  0.50027  1.0000
  C   C8        1.0  0.27191  0.29572  0.49910  1.0000
  C   C9        1.0  0.21745  0.39795  0.49923  1.0000
  C   C10       1.0  0.05481  0.50118  0.50000  1.0000
  C   C11       1.0  0.10770  0.39907  0.49986  1.0000
  C   C12       1.0  0.22719  0.59391  0.49959  1.0000
  C   C13       1.0  0.05879  0.70017  0.49996  1.0000
  C   C14       1.0  0.11495  0.59914  0.49988  1.0000
  C   C15       1.0  0.28781  0.69458  0.49991  1.0000
  C   C16       1.0  0.22695  0.79547  0.50002  1.0000
  C   C17       1.0  0.05698  0.89988  0.50003  1.0000
  C   C18       1.0  0.11468  0.79856  0.49996  1.0000
  C   C19       1.0  0.27922  0.89711  0.50015  1.0000
  C   C20       1.0  0.55404  0.00296  0.49996  1.0000
  C   C21       1.0  0.38554  0.09973  0.49988  1.0000
  C   C22       1.0  0.44331  0.99972  0.50005  1.0000
  C   C23       1.0  0.60689  0.10481  0.49992  1.0000
  C   C24       1.0  0.54923  0.20585  0.49959  1.0000
  C   C25       1.0  0.43695  0.20275  0.49924  1.0000
  C   C26       1.0  0.60441  0.30740  0.49994  1.0000
  C   C27       1.0  0.55910  0.80016  0.50018  1.0000
  C   C28       1.0  0.39033  0.89763  0.50012  1.0000
  C   C29       1.0  0.44581  0.79483  0.50012  1.0000
  C   C30       1.0  0.61084  0.90236  0.50002  1.0000
  C   C31       1.0  0.88751  0.00300  0.50005  1.0000
  C   C32       1.0  0.71851  0.10609  0.50011  1.0000
  C   C33       1.0  0.77579  0.00493  0.49999  1.0000
  C   C34       1.0  0.94119  0.10262  0.50027  1.0000
  C   C35       1.0  0.88449  0.20403  0.50040  1.0000
  C   C36       1.0  0.71702  0.30920  0.50059  1.0000
  C   C37       1.0  0.77296  0.20704  0.50041  1.0000
  C   C38       1.0  0.93934  0.30342  0.50043  1.0000
  C   C39       1.0  0.88461  0.40561  0.50053  1.0000
  C   C40       1.0  0.77232  0.41093  0.50074  1.0000
  C   C41       1.0  0.94423  0.50308  0.50033  1.0000
  C   C42       1.0  0.88979  0.60452  0.50034  1.0000
  C   C43       1.0  0.72477  0.70706  0.50041  1.0000
  C   C44       1.0  0.77971  0.60547  0.50063  1.0000
  C   C45       1.0  0.94706  0.70274  0.50007  1.0000
  C   C46       1.0  0.89118  0.80323  0.50000  1.0000
  C   C47       1.0  0.72230  0.90484  0.49996  1.0000
  C   C48       1.0  0.77996  0.80490  0.50008  1.0000
  C   C49       1.0  0.94537  0.90251  0.49997  1.0000
  N   N1        1.0  0.27540  0.49244  0.49889  1.0000
  N   N2        1.0  0.37890  0.29692  0.49829  1.0000
  N   N3        1.0  0.55373  0.40334  0.49953  1.0000
  N   N4        1.0  0.39696  0.69532  0.50007  1.0000
  N   N5        1.0  0.61698  0.70501  0.50046  1.0000
  N   N6        1.0  0.72056  0.51169  0.50095  1.0000
  Fe  Fe1       1.0  0.41921  0.45075  0.49662  1.0000
  V   V1        1.0  0.56331  0.55449  0.50064  1.0000
