data_image0
_chemical_formula_structural       C52N4Fe2
_chemical_formula_sum              "C52 N4 Fe2"
_cell_length_a       12.672
_cell_length_b       12.5509
_cell_length_c       19.9748
_cell_angle_alpha    89.9968
_cell_angle_beta     90.0465
_cell_angle_gamma    89.8012

_space_group_name_H-M_alt    "P 1"
_space_group_IT_number       1

loop_
  _space_group_symop_operation_xyz
  'x, y, z'

loop_
  _atom_site_type_symbol
  _atom_site_label
  _atom_site_symmetry_multiplicity
  _atom_site_fract_x
  _atom_site_fract_y
  _atom_site_fract_z
  _atom_site_occupancy
  C   C1        1.0  0.22188  0.99874  0.50052  1.0000
  C   C2        1.0  0.05455  0.09892  0.50009  1.0000
  C   C3        1.0  0.11028  0.99927  0.50043  1.0000
  C   C4        1.0  0.27736  0.09709  0.50036  1.0000
  C   C5        1.0  0.22142  0.19520  0.50021  1.0000
  C   C6        1.0  0.05507  0.29849  0.49982  1.0000
  C   C7        1.0  0.10960  0.19780  0.50000  1.0000
  C   C8        1.0  0.27745  0.29269  0.50031  1.0000
  C   C9        1.0  0.06186  0.49838  0.49950  1.0000
  C   C10       1.0  0.11518  0.39572  0.49966  1.0000
  C   C11       1.0  0.05826  0.69931  0.49995  1.0000
  C   C12       1.0  0.11783  0.60085  0.49943  1.0000
  C   C13       1.0  0.27698  0.70377  0.49965  1.0000
  C   C14       1.0  0.22245  0.80173  0.50025  1.0000
  C   C15       1.0  0.05571  0.89964  0.50040  1.0000
  C   C16       1.0  0.11106  0.80017  0.50028  1.0000
  C   C17       1.0  0.27773  0.90050  0.50046  1.0000
  C   C18       1.0  0.55593  0.99866  0.49956  1.0000
  C   C19       1.0  0.38904  0.09799  0.50024  1.0000
  C   C20       1.0  0.44454  0.99886  0.49995  1.0000
  C   C21       1.0  0.61121  0.09742  0.49976  1.0000
  C   C22       1.0  0.55669  0.19539  0.50049  1.0000
  C   C23       1.0  0.44349  0.19755  0.50048  1.0000
  C   C24       1.0  0.55622  0.60648  0.50002  1.0000
  C   C25       1.0  0.39017  0.70161  0.49975  1.0000
  C   C26       1.0  0.61224  0.70397  0.49995  1.0000
  C   C27       1.0  0.55631  0.80206  0.49975  1.0000
  C   C28       1.0  0.38912  0.90030  0.50012  1.0000
  C   C29       1.0  0.44462  0.80118  0.49990  1.0000
  C   C30       1.0  0.61177  0.90042  0.49949  1.0000
  C   C31       1.0  0.88912  0.99962  0.49975  1.0000
  C   C32       1.0  0.72261  0.09898  0.49964  1.0000
  C   C33       1.0  0.77795  0.99951  0.49946  1.0000
  C   C34       1.0  0.94284  0.09994  0.49982  1.0000
  C   C35       1.0  0.88751  0.20029  0.49985  1.0000
  C   C36       1.0  0.71584  0.29831  0.50065  1.0000
  C   C37       1.0  0.77539  0.19985  0.50001  1.0000
  C   C38       1.0  0.94262  0.30027  0.49993  1.0000
  C   C39       1.0  0.88637  0.40034  0.50016  1.0000
  C   C40       1.0  0.71849  0.50344  0.50055  1.0000
  C   C41       1.0  0.77180  0.40077  0.50062  1.0000
  C   C42       1.0  0.94729  0.49881  0.49990  1.0000
  C   C43       1.0  0.89104  0.59889  0.50008  1.0000
  C   C44       1.0  0.72407  0.70136  0.50006  1.0000
  C   C45       1.0  0.77860  0.60067  0.50026  1.0000
  C   C46       1.0  0.94615  0.69886  0.50008  1.0000
  C   C47       1.0  0.89082  0.79922  0.50006  1.0000
  C   C48       1.0  0.72339  0.89989  0.49949  1.0000
  C   C49       1.0  0.77910  0.80024  0.49984  1.0000
  C   C50       1.0  0.94454  0.89953  0.50009  1.0000
  C   C51       1.0  0.38964  0.29787  0.50073  1.0000
  C   C52       1.0  0.44402  0.60129  0.49964  1.0000
  N   N1        1.0  0.22281  0.38856  0.49985  1.0000
  N   N2        1.0  0.22625  0.60717  0.49905  1.0000
  N   N3        1.0  0.60742  0.29199  0.50113  1.0000
  N   N4        1.0  0.61087  0.51061  0.50053  1.0000
  Fe  Fe1       1.0  0.33482  0.48926  0.49914  1.0000
  Fe  Fe2       1.0  0.49886  0.40990  0.50129  1.0000
