data_image0
_chemical_formula_structural       C54N2Fe2
_chemical_formula_sum              "C54 N2 Fe2"
_cell_length_a       12.672
_cell_length_b       12.5509
_cell_length_c       19.9748
_cell_angle_alpha    89.9968
_cell_angle_beta     90.0465
_cell_angle_gamma    89.8012

_space_group_name_H-M_alt    "P 1"
_space_group_IT_number       1

loop_
  _space_group_symop_operation_xyz
  'x, y, z'

loop_
  _atom_site_type_symbol
  _atom_site_label
  _atom_site_symmetry_multiplicity
  _atom_site_fract_x
  _atom_site_fract_y
  _atom_site_fract_z
  _atom_site_occupancy
  C   C1        1.0  0.22141  0.99755  0.50026  1.0000
  C   C2        1.0  0.05373  0.09768  0.50002  1.0000
  C   C3        1.0  0.10992  0.99812  0.50028  1.0000
  C   C4        1.0  0.27641  0.09622  0.50007  1.0000
  C   C5        1.0  0.21992  0.19359  0.49972  1.0000
  C   C6        1.0  0.05487  0.29682  0.49958  1.0000
  C   C7        1.0  0.10884  0.19625  0.49971  1.0000
  C   C8        1.0  0.27505  0.29123  0.49997  1.0000
  C   C9        1.0  0.06249  0.49854  0.49950  1.0000
  C   C10       1.0  0.11430  0.39465  0.49962  1.0000
  C   C11       1.0  0.05973  0.69855  0.49976  1.0000
  C   C12       1.0  0.11935  0.59947  0.49949  1.0000
  C   C13       1.0  0.27777  0.70238  0.49987  1.0000
  C   C14       1.0  0.22279  0.80062  0.50007  1.0000
  C   C15       1.0  0.05549  0.89875  0.50027  1.0000
  C   C16       1.0  0.11159  0.79958  0.50006  1.0000
  C   C17       1.0  0.27789  0.89956  0.50021  1.0000
  C   C18       1.0  0.55573  0.00010  0.49981  1.0000
  C   C19       1.0  0.38773  0.09882  0.50019  1.0000
  C   C20       1.0  0.44419  0.99964  0.50003  1.0000
  C   C21       1.0  0.60990  0.10010  0.50000  1.0000
  C   C22       1.0  0.55438  0.19937  0.50046  1.0000
  C   C23       1.0  0.44069  0.19982  0.50037  1.0000
  C   C24       1.0  0.55558  0.60392  0.50037  1.0000
  C   C25       1.0  0.39011  0.70073  0.50016  1.0000
  C   C26       1.0  0.61203  0.70315  0.49976  1.0000
  C   C27       1.0  0.55650  0.80181  0.49972  1.0000
  C   C28       1.0  0.38946  0.90016  0.50004  1.0000
  C   C29       1.0  0.44478  0.80061  0.49996  1.0000
  C   C30       1.0  0.61136  0.90103  0.49959  1.0000
  C   C31       1.0  0.88827  0.99934  0.49992  1.0000
  C   C32       1.0  0.72147  0.10065  0.49988  1.0000
  C   C33       1.0  0.77708  0.00029  0.49969  1.0000
  C   C34       1.0  0.94226  0.09935  0.49993  1.0000
  C   C35       1.0  0.88707  0.19999  0.49986  1.0000
  C   C36       1.0  0.71749  0.30187  0.50054  1.0000
  C   C37       1.0  0.77487  0.20124  0.50006  1.0000
  C   C38       1.0  0.94359  0.29903  0.49977  1.0000
  C   C39       1.0  0.88957  0.40021  0.49999  1.0000
  C   C40       1.0  0.72416  0.50264  0.50031  1.0000
  C   C41       1.0  0.77761  0.40097  0.50043  1.0000
  C   C42       1.0  0.94910  0.49948  0.49976  1.0000
  C   C43       1.0  0.89282  0.59966  0.49987  1.0000
  C   C44       1.0  0.72409  0.70092  0.49975  1.0000
  C   C45       1.0  0.78076  0.60122  0.50001  1.0000
  C   C46       1.0  0.94761  0.69896  0.49984  1.0000
  C   C47       1.0  0.89093  0.79913  0.49988  1.0000
  C   C48       1.0  0.72313  0.90023  0.49954  1.0000
  C   C49       1.0  0.77907  0.80031  0.49966  1.0000
  C   C50       1.0  0.94418  0.89928  0.50007  1.0000
  C   C51       1.0  0.38566  0.29928  0.50049  1.0000
  C   C52       1.0  0.60506  0.29995  0.50098  1.0000
  C   C53       1.0  0.61485  0.50764  0.50026  1.0000
  C   C54       1.0  0.44158  0.59890  0.50080  1.0000
  N   N1        1.0  0.22010  0.38705  0.50016  1.0000
  N   N2        1.0  0.22864  0.60456  0.49947  1.0000
  Fe  Fe1       1.0  0.33088  0.48503  0.50032  1.0000
  Fe  Fe2       1.0  0.50037  0.41960  0.50228  1.0000
