data_image0
_chemical_formula_structural       C48N6FeSc
_chemical_formula_sum              "C48 N6 Fe1 Sc1"
_cell_length_a       12.7128
_cell_length_b       12.3137
_cell_length_c       20.2941
_cell_angle_alpha    90.1307
_cell_angle_beta     90.0572
_cell_angle_gamma    89.9958

_space_group_name_H-M_alt    "P 1"
_space_group_IT_number       1

loop_
  _space_group_symop_operation_xyz
  'x, y, z'

loop_
  _atom_site_type_symbol
  _atom_site_label
  _atom_site_symmetry_multiplicity
  _atom_site_fract_x
  _atom_site_fract_y
  _atom_site_fract_z
  _atom_site_occupancy
  C   C1        1.0  0.22186  0.00117  0.50073  1.0000
  C   C2        1.0  0.05521  0.10237  0.50145  1.0000
  C   C3        1.0  0.10996  0.00133  0.50107  1.0000
  C   C4        1.0  0.27715  0.10179  0.49975  1.0000
  C   C5        1.0  0.22368  0.20381  0.50003  1.0000
  C   C6        1.0  0.05580  0.30324  0.50135  1.0000
  C   C7        1.0  0.11107  0.20308  0.50132  1.0000
  C   C8        1.0  0.28237  0.30318  0.49830  1.0000
  C   C9        1.0  0.22806  0.40597  0.50117  1.0000
  C   C10       1.0  0.05569  0.50126  0.50162  1.0000
  C   C11       1.0  0.11389  0.40255  0.50147  1.0000
  C   C12       1.0  0.22700  0.59732  0.50219  1.0000
  C   C13       1.0  0.05579  0.69976  0.50087  1.0000
  C   C14       1.0  0.11358  0.60044  0.50130  1.0000
  C   C15       1.0  0.28258  0.69947  0.50255  1.0000
  C   C16       1.0  0.22366  0.79883  0.50159  1.0000
  C   C17       1.0  0.05530  0.90057  0.50094  1.0000
  C   C18       1.0  0.11118  0.79972  0.50094  1.0000
  C   C19       1.0  0.27727  0.90052  0.50138  1.0000
  C   C20       1.0  0.55456  0.00078  0.50072  1.0000
  C   C21       1.0  0.38861  0.10108  0.49918  1.0000
  C   C22       1.0  0.44380  0.00068  0.50078  1.0000
  C   C23       1.0  0.60964  0.10125  0.49909  1.0000
  C   C24       1.0  0.55551  0.20228  0.49680  1.0000
  C   C25       1.0  0.44265  0.20214  0.49680  1.0000
  C   C26       1.0  0.55572  0.79871  0.50291  1.0000
  C   C27       1.0  0.38890  0.89986  0.50190  1.0000
  C   C28       1.0  0.44284  0.79855  0.50302  1.0000
  C   C29       1.0  0.60957  0.90002  0.50179  1.0000
  C   C30       1.0  0.88843  0.00142  0.50098  1.0000
  C   C31       1.0  0.72113  0.10199  0.49959  1.0000
  C   C32       1.0  0.77653  0.00138  0.50058  1.0000
  C   C33       1.0  0.94306  0.10244  0.50140  1.0000
  C   C34       1.0  0.88710  0.20319  0.50123  1.0000
  C   C35       1.0  0.71569  0.30350  0.49828  1.0000
  C   C36       1.0  0.77447  0.20405  0.49986  1.0000
  C   C37       1.0  0.94234  0.30332  0.50132  1.0000
  C   C38       1.0  0.88424  0.40270  0.50144  1.0000
  C   C39       1.0  0.77003  0.40623  0.50120  1.0000
  C   C40       1.0  0.94262  0.50132  0.50162  1.0000
  C   C41       1.0  0.88487  0.60058  0.50132  1.0000
  C   C42       1.0  0.71617  0.69983  0.50246  1.0000
  C   C43       1.0  0.77151  0.59764  0.50224  1.0000
  C   C44       1.0  0.94274  0.69985  0.50088  1.0000
  C   C45       1.0  0.88740  0.79987  0.50094  1.0000
  C   C46       1.0  0.72121  0.90074  0.50127  1.0000
  C   C47       1.0  0.77497  0.79914  0.50154  1.0000
  C   C48       1.0  0.94321  0.90066  0.50092  1.0000
  N   N1        1.0  0.28444  0.50208  0.50288  1.0000
  N   N2        1.0  0.39108  0.30108  0.49280  1.0000
  N   N3        1.0  0.60687  0.30137  0.49297  1.0000
  N   N4        1.0  0.39174  0.69957  0.50352  1.0000
  N   N5        1.0  0.60706  0.69988  0.50329  1.0000
  N   N6        1.0  0.71373  0.50254  0.50307  1.0000
  Fe  Fe1       1.0  0.49859  0.38763  0.44641  1.0000
  Sc  Sc1       1.0  0.50037  0.55785  0.51046  1.0000
