data_image0
_chemical_formula_structural       C53N5CuFe
_chemical_formula_sum              "C53 N5 Cu1 Fe1"
_cell_length_a       12.81
_cell_length_b       12.4
_cell_length_c       20
_cell_angle_alpha    90
_cell_angle_beta     90
_cell_angle_gamma    90

_space_group_name_H-M_alt    "P 1"
_space_group_IT_number       1

loop_
  _space_group_symop_operation_xyz
  'x, y, z'

loop_
  _atom_site_type_symbol
  _atom_site_label
  _atom_site_symmetry_multiplicity
  _atom_site_fract_x
  _atom_site_fract_y
  _atom_site_fract_z
  _atom_site_occupancy
  C   C1        1.0  0.22198  0.00035  0.49164  1.0000
  C   C2        1.0  0.05687  0.10057  0.48627  1.0000
  C   C3        1.0  0.11091  0.99997  0.48814  1.0000
  C   C4        1.0  0.27742  0.10133  0.49215  1.0000
  C   C5        1.0  0.22407  0.20336  0.49502  1.0000
  C   C6        1.0  0.05551  0.30056  0.49059  1.0000
  C   C7        1.0  0.11227  0.20136  0.49033  1.0000
  C   C8        1.0  0.28044  0.30394  0.50410  1.0000
  C   C9        1.0  0.21973  0.40459  0.50733  1.0000
  C   C10       1.0  0.05244  0.50076  0.49709  1.0000
  C   C11       1.0  0.10911  0.40113  0.49711  1.0000
  C   C12       1.0  0.21657  0.59967  0.51411  1.0000
  C   C13       1.0  0.05209  0.70018  0.49532  1.0000
  C   C14       1.0  0.10735  0.60092  0.50094  1.0000
  C   C15       1.0  0.27366  0.70182  0.51827  1.0000
  C   C16       1.0  0.22022  0.79956  0.50171  1.0000
  C   C17       1.0  0.05486  0.89969  0.48792  1.0000
  C   C18       1.0  0.10908  0.79953  0.49363  1.0000
  C   C19       1.0  0.27657  0.90021  0.49764  1.0000
  C   C20       1.0  0.55459  0.99875  0.48869  1.0000
  C   C21       1.0  0.38819  0.09944  0.49035  1.0000
  C   C22       1.0  0.44362  0.99957  0.49098  1.0000
  C   C23       1.0  0.61122  0.09746  0.48411  1.0000
  C   C24       1.0  0.55607  0.19643  0.48817  1.0000
  C   C25       1.0  0.39384  0.29822  0.50581  1.0000
  C   C26       1.0  0.44514  0.19803  0.49277  1.0000
  C   C27       1.0  0.61367  0.29412  0.49234  1.0000
  C   C28       1.0  0.56034  0.38864  0.51106  1.0000
  C   C29       1.0  0.38209  0.71337  0.53929  1.0000
  C   C30       1.0  0.55634  0.80304  0.51206  1.0000
  C   C31       1.0  0.38830  0.90041  0.49974  1.0000
  C   C32       1.0  0.44379  0.80428  0.51572  1.0000
  C   C33       1.0  0.61035  0.89994  0.49503  1.0000
  C   C34       1.0  0.88913  0.99932  0.48313  1.0000
  C   C35       1.0  0.72247  0.09833  0.48224  1.0000
  C   C36       1.0  0.77771  0.99874  0.48370  1.0000
  C   C37       1.0  0.94542  0.09948  0.48303  1.0000
  C   C38       1.0  0.88988  0.19913  0.48320  1.0000
  C   C39       1.0  0.72373  0.29674  0.48835  1.0000
  C   C40       1.0  0.77882  0.19786  0.48264  1.0000
  C   C41       1.0  0.94431  0.29984  0.48699  1.0000
  C   C42       1.0  0.88788  0.39946  0.49083  1.0000
  C   C43       1.0  0.71844  0.49374  0.50717  1.0000
  C   C44       1.0  0.77688  0.39763  0.49386  1.0000
  C   C45       1.0  0.94105  0.50011  0.49465  1.0000
  C   C46       1.0  0.88302  0.59927  0.49765  1.0000
  C   C47       1.0  0.71853  0.70276  0.50748  1.0000
  C   C48       1.0  0.77121  0.59850  0.50563  1.0000
  C   C49       1.0  0.94061  0.69910  0.49375  1.0000
  C   C50       1.0  0.88689  0.79921  0.49000  1.0000
  C   C51       1.0  0.72132  0.89984  0.49039  1.0000
  C   C52       1.0  0.77572  0.79960  0.49426  1.0000
  C   C53       1.0  0.94349  0.89899  0.48587  1.0000
  N   N1        1.0  0.26553  0.50177  0.52078  1.0000
  N   N2        1.0  0.45523  0.38581  0.52136  1.0000
  N   N3        1.0  0.61362  0.48380  0.52282  1.0000
  N   N4        1.0  0.42700  0.64601  0.58326  1.0000
  N   N5        1.0  0.61421  0.71022  0.52448  1.0000
  Cu  Cu1       1.0  0.39806  0.50479  0.56515  1.0000
  Fe  Fe1       1.0  0.55606  0.60000  0.57351  1.0000
