data_image0
_chemical_formula_structural       C54N4FeV
_chemical_formula_sum              "C54 N4 Fe1 V1"
_cell_length_a       12.9161
_cell_length_b       12.3203
_cell_length_c       20.029
_cell_angle_alpha    90.9218
_cell_angle_beta     94.4129
_cell_angle_gamma    90.9278

_space_group_name_H-M_alt    "P 1"
_space_group_IT_number       1

loop_
  _space_group_symop_operation_xyz
  'x, y, z'

loop_
  _atom_site_type_symbol
  _atom_site_label
  _atom_site_symmetry_multiplicity
  _atom_site_fract_x
  _atom_site_fract_y
  _atom_site_fract_z
  _atom_site_occupancy
  C   C1        1.0  0.22265  0.00313  0.49898  1.0000
  C   C2        1.0  0.05757  0.10188  0.49752  1.0000
  C   C3        1.0  0.11152  0.00209  0.49797  1.0000
  C   C4        1.0  0.27978  0.10373  0.49953  1.0000
  C   C5        1.0  0.22670  0.20581  0.49950  1.0000
  C   C6        1.0  0.05908  0.30191  0.49700  1.0000
  C   C7        1.0  0.11506  0.20281  0.49804  1.0000
  C   C8        1.0  0.28413  0.30844  0.50087  1.0000
  C   C9        1.0  0.22620  0.40901  0.50045  1.0000
  C   C10       1.0  0.05533  0.50137  0.49687  1.0000
  C   C11       1.0  0.11405  0.40356  0.49775  1.0000
  C   C12       1.0  0.21737  0.60390  0.49974  1.0000
  C   C13       1.0  0.05296  0.70246  0.49667  1.0000
  C   C14       1.0  0.10837  0.60318  0.49729  1.0000
  C   C15       1.0  0.27305  0.70467  0.50047  1.0000
  C   C16       1.0  0.21885  0.80336  0.49868  1.0000
  C   C17       1.0  0.05399  0.90198  0.49731  1.0000
  C   C18       1.0  0.10838  0.80260  0.49727  1.0000
  C   C19       1.0  0.27673  0.90260  0.49954  1.0000
  C   C20       1.0  0.55533  0.99544  0.49957  1.0000
  C   C21       1.0  0.39053  0.10064  0.49960  1.0000
  C   C22       1.0  0.44463  0.99855  0.49989  1.0000
  C   C23       1.0  0.61222  0.09599  0.49815  1.0000
  C   C24       1.0  0.55822  0.19655  0.49816  1.0000
  C   C25       1.0  0.39644  0.30504  0.50113  1.0000
  C   C26       1.0  0.44779  0.20104  0.49945  1.0000
  C   C27       1.0  0.61583  0.29574  0.49693  1.0000
  C   C28       1.0  0.56211  0.39453  0.49905  1.0000
  C   C29       1.0  0.61771  0.49528  0.49894  1.0000
  C   C30       1.0  0.60923  0.69022  0.50113  1.0000
  C   C31       1.0  0.55144  0.79083  0.50183  1.0000
  C   C32       1.0  0.38744  0.89816  0.50052  1.0000
  C   C33       1.0  0.43920  0.79424  0.50227  1.0000
  C   C34       1.0  0.60849  0.89338  0.50016  1.0000
  C   C35       1.0  0.88843  0.99933  0.49716  1.0000
  C   C36       1.0  0.72310  0.09698  0.49714  1.0000
  C   C37       1.0  0.77706  0.99719  0.49766  1.0000
  C   C38       1.0  0.94605  0.09970  0.49676  1.0000
  C   C39       1.0  0.89119  0.19897  0.49592  1.0000
  C   C40       1.0  0.72597  0.29640  0.49550  1.0000
  C   C41       1.0  0.78040  0.19703  0.49585  1.0000
  C   C42       1.0  0.94771  0.29974  0.49578  1.0000
  C   C43       1.0  0.89145  0.39844  0.49534  1.0000
  C   C44       1.0  0.72613  0.49587  0.49653  1.0000
  C   C45       1.0  0.78129  0.39653  0.49524  1.0000
  C   C46       1.0  0.94537  0.49975  0.49592  1.0000
  C   C47       1.0  0.88895  0.59925  0.49634  1.0000
  C   C48       1.0  0.72075  0.69554  0.49857  1.0000
  C   C49       1.0  0.77920  0.59768  0.49710  1.0000
  C   C50       1.0  0.94281  0.70055  0.49660  1.0000
  C   C51       1.0  0.88669  0.79927  0.49719  1.0000
  C   C52       1.0  0.71978  0.89630  0.49879  1.0000
  C   C53       1.0  0.77558  0.79715  0.49816  1.0000
  C   C54       1.0  0.94320  0.90005  0.49719  1.0000
  N   N1        1.0  0.27509  0.50989  0.50305  1.0000
  N   N2        1.0  0.45604  0.39956  0.50320  1.0000
  N   N3        1.0  0.56091  0.58943  0.50309  1.0000
  N   N4        1.0  0.38012  0.69983  0.50435  1.0000
  Fe  Fe1       1.0  0.41930  0.54988  0.51379  1.0000
  V   V1        1.0  0.43094  0.55125  0.61350  1.0000
