data_image0
_chemical_formula_structural       C48N6CuFe
_chemical_formula_sum              "C48 N6 Cu1 Fe1"
_cell_length_a       12.7552
_cell_length_b       12.3365
_cell_length_c       20.1894
_cell_angle_alpha    90.004
_cell_angle_beta     90.0153
_cell_angle_gamma    90.0006

_space_group_name_H-M_alt    "P 1"
_space_group_IT_number       1

loop_
  _space_group_symop_operation_xyz
  'x, y, z'

loop_
  _atom_site_type_symbol
  _atom_site_label
  _atom_site_symmetry_multiplicity
  _atom_site_fract_x
  _atom_site_fract_y
  _atom_site_fract_z
  _atom_site_occupancy
  C   C1        1.0  0.22164  0.00018  0.50009  1.0000
  C   C2        1.0  0.05520  0.10107  0.50006  1.0000
  C   C3        1.0  0.10997  0.00033  0.50006  1.0000
  C   C4        1.0  0.27706  0.10075  0.49917  1.0000
  C   C5        1.0  0.22323  0.20222  0.49886  1.0000
  C   C6        1.0  0.05555  0.30171  0.49969  1.0000
  C   C7        1.0  0.11093  0.20167  0.49978  1.0000
  C   C8        1.0  0.28268  0.30131  0.49701  1.0000
  C   C9        1.0  0.22655  0.40520  0.49930  1.0000
  C   C10       1.0  0.05585  0.50043  0.50029  1.0000
  C   C11       1.0  0.11293  0.40120  0.49977  1.0000
  C   C12       1.0  0.22599  0.59606  0.50162  1.0000
  C   C13       1.0  0.05548  0.69923  0.50040  1.0000
  C   C14       1.0  0.11246  0.59973  0.50062  1.0000
  C   C15       1.0  0.28223  0.69908  0.50270  1.0000
  C   C16       1.0  0.22344  0.79831  0.50122  1.0000
  C   C17       1.0  0.05523  0.89957  0.50007  1.0000
  C   C18       1.0  0.11107  0.79908  0.50037  1.0000
  C   C19       1.0  0.27710  0.89987  0.50101  1.0000
  C   C20       1.0  0.55461  0.00010  0.50042  1.0000
  C   C21       1.0  0.38851  0.10036  0.49881  1.0000
  C   C22       1.0  0.44377  0.00010  0.50042  1.0000
  C   C23       1.0  0.60986  0.10035  0.49881  1.0000
  C   C24       1.0  0.55651  0.20161  0.49581  1.0000
  C   C25       1.0  0.44186  0.20162  0.49582  1.0000
  C   C26       1.0  0.55592  0.79887  0.50349  1.0000
  C   C27       1.0  0.38865  0.89996  0.50163  1.0000
  C   C28       1.0  0.44245  0.79888  0.50349  1.0000
  C   C29       1.0  0.60973  0.89996  0.50164  1.0000
  C   C30       1.0  0.88840  0.00033  0.50007  1.0000
  C   C31       1.0  0.72130  0.10075  0.49917  1.0000
  C   C32       1.0  0.77673  0.00019  0.50011  1.0000
  C   C33       1.0  0.94316  0.10107  0.50006  1.0000
  C   C34       1.0  0.88744  0.20167  0.49976  1.0000
  C   C35       1.0  0.71568  0.30130  0.49698  1.0000
  C   C36       1.0  0.77514  0.20222  0.49884  1.0000
  C   C37       1.0  0.94284  0.30171  0.49967  1.0000
  C   C38       1.0  0.88547  0.40120  0.49975  1.0000
  C   C39       1.0  0.77184  0.40519  0.49927  1.0000
  C   C40       1.0  0.94255  0.50043  0.50029  1.0000
  C   C41       1.0  0.88593  0.59972  0.50063  1.0000
  C   C42       1.0  0.71614  0.69908  0.50271  1.0000
  C   C43       1.0  0.77239  0.59605  0.50161  1.0000
  C   C44       1.0  0.94291  0.69922  0.50042  1.0000
  C   C45       1.0  0.88731  0.79906  0.50039  1.0000
  C   C46       1.0  0.72128  0.89986  0.50103  1.0000
  C   C47       1.0  0.77493  0.79831  0.50124  1.0000
  C   C48       1.0  0.94314  0.89957  0.50008  1.0000
  N   N1        1.0  0.27987  0.50083  0.50126  1.0000
  N   N2        1.0  0.38957  0.29794  0.49334  1.0000
  N   N3        1.0  0.60879  0.29794  0.49332  1.0000
  N   N4        1.0  0.39016  0.70122  0.50490  1.0000
  N   N5        1.0  0.60820  0.70121  0.50488  1.0000
  N   N6        1.0  0.71852  0.50082  0.50123  1.0000
  Cu  Cu1       1.0  0.49914  0.41131  0.47582  1.0000
  Fe  Fe1       1.0  0.49917  0.58653  0.51828  1.0000
