data_image0
_chemical_formula_structural       C52N4ZnFe
_chemical_formula_sum              "C52 N4 Zn1 Fe1"
_cell_length_a       12.7525
_cell_length_b       12.5391
_cell_length_c       19.8675
_cell_angle_alpha    90.011
_cell_angle_beta     89.9856
_cell_angle_gamma    89.8119

_space_group_name_H-M_alt    "P 1"
_space_group_IT_number       1

loop_
  _space_group_symop_operation_xyz
  'x, y, z'

loop_
  _atom_site_type_symbol
  _atom_site_label
  _atom_site_symmetry_multiplicity
  _atom_site_fract_x
  _atom_site_fract_y
  _atom_site_fract_z
  _atom_site_occupancy
  C   C1        1.0  0.21983  0.99862  0.50004  1.0000
  C   C2        1.0  0.05415  0.09964  0.50003  1.0000
  C   C3        1.0  0.10882  0.99906  0.50002  1.0000
  C   C4        1.0  0.27493  0.09761  0.50001  1.0000
  C   C5        1.0  0.22084  0.19763  0.49999  1.0000
  C   C6        1.0  0.05556  0.30031  0.50000  1.0000
  C   C7        1.0  0.10945  0.19950  0.50002  1.0000
  C   C8        1.0  0.28013  0.29513  0.49984  1.0000
  C   C9        1.0  0.22652  0.39855  0.49988  1.0000
  C   C10       1.0  0.05692  0.50045  0.50000  1.0000
  C   C11       1.0  0.11413  0.39970  0.49997  1.0000
  C   C12       1.0  0.28395  0.50127  0.49988  1.0000
  C   C13       1.0  0.22639  0.60181  0.49997  1.0000
  C   C14       1.0  0.05592  0.69961  0.50001  1.0000
  C   C15       1.0  0.11368  0.60063  0.50000  1.0000
  C   C16       1.0  0.28339  0.70177  0.49998  1.0000
  C   C17       1.0  0.22350  0.79993  0.50002  1.0000
  C   C18       1.0  0.05473  0.89892  0.50002  1.0000
  C   C19       1.0  0.11127  0.79918  0.50001  1.0000
  C   C20       1.0  0.27631  0.90008  0.50005  1.0000
  C   C21       1.0  0.55447  0.99946  0.50003  1.0000
  C   C22       1.0  0.38605  0.09547  0.50001  1.0000
  C   C23       1.0  0.44346  0.99860  0.50006  1.0000
  C   C24       1.0  0.61000  0.09785  0.49996  1.0000
  C   C25       1.0  0.55396  0.19609  0.49987  1.0000
  C   C26       1.0  0.43933  0.19329  0.49984  1.0000
  C   C27       1.0  0.55556  0.80370  0.50000  1.0000
  C   C28       1.0  0.38790  0.90106  0.50008  1.0000
  C   C29       1.0  0.44322  0.80376  0.50002  1.0000
  C   C30       1.0  0.61041  0.90141  0.50003  1.0000
  C   C31       1.0  0.88838  0.99972  0.50002  1.0000
  C   C32       1.0  0.72148  0.09987  0.49998  1.0000
  C   C33       1.0  0.77721  0.00001  0.50001  1.0000
  C   C34       1.0  0.94301  0.10000  0.50002  1.0000
  C   C35       1.0  0.88802  0.20042  0.50000  1.0000
  C   C36       1.0  0.71842  0.29929  0.49993  1.0000
  C   C37       1.0  0.77611  0.19985  0.49997  1.0000
  C   C38       1.0  0.94350  0.30053  0.49999  1.0000
  C   C39       1.0  0.88662  0.40078  0.49997  1.0000
  C   C40       1.0  0.71854  0.50145  0.49985  1.0000
  C   C41       1.0  0.77508  0.40015  0.49992  1.0000
  C   C42       1.0  0.94403  0.50090  0.49999  1.0000
  C   C43       1.0  0.88680  0.60108  0.50000  1.0000
  C   C44       1.0  0.71647  0.70248  0.49996  1.0000
  C   C45       1.0  0.77409  0.60283  0.49995  1.0000
  C   C46       1.0  0.94369  0.69996  0.50002  1.0000
  C   C47       1.0  0.88750  0.79950  0.50003  1.0000
  C   C48       1.0  0.72200  0.90103  0.50002  1.0000
  C   C49       1.0  0.77530  0.80052  0.50002  1.0000
  C   C50       1.0  0.94301  0.89923  0.50003  1.0000
  C   C51       1.0  0.60838  0.29344  0.49989  1.0000
  C   C52       1.0  0.61132  0.51193  0.49964  1.0000
  N   N1        1.0  0.38647  0.28632  0.49965  1.0000
  N   N2        1.0  0.38708  0.50157  0.49976  1.0000
  N   N3        1.0  0.39245  0.70682  0.49994  1.0000
  N   N4        1.0  0.60667  0.70608  0.49991  1.0000
  Zn  Zn1       1.0  0.49941  0.40109  0.49965  1.0000
  Fe  Fe1       1.0  0.49860  0.59560  0.49972  1.0000
