data_image0
_chemical_formula_structural       C54N2Fe2
_chemical_formula_sum              "C54 N2 Fe2"
_cell_length_a       12.7705
_cell_length_b       12.4969
_cell_length_c       19.9063
_cell_angle_alpha    90.0247
_cell_angle_beta     89.993
_cell_angle_gamma    90.0645

_space_group_name_H-M_alt    "P 1"
_space_group_IT_number       1

loop_
  _space_group_symop_operation_xyz
  'x, y, z'

loop_
  _atom_site_type_symbol
  _atom_site_label
  _atom_site_symmetry_multiplicity
  _atom_site_fract_x
  _atom_site_fract_y
  _atom_site_fract_z
  _atom_site_occupancy
  C   C1        1.0  0.22074  0.00031  0.50030  1.0000
  C   C2        1.0  0.05502  0.10057  0.50021  1.0000
  C   C3        1.0  0.10987  0.00011  0.50017  1.0000
  C   C4        1.0  0.27677  0.10014  0.50038  1.0000
  C   C5        1.0  0.22293  0.20051  0.50051  1.0000
  C   C6        1.0  0.05457  0.29999  0.50080  1.0000
  C   C7        1.0  0.11072  0.20039  0.50052  1.0000
  C   C8        1.0  0.28124  0.29973  0.50018  1.0000
  C   C9        1.0  0.22296  0.39955  0.50051  1.0000
  C   C10       1.0  0.05449  0.49955  0.50115  1.0000
  C   C11       1.0  0.11121  0.39978  0.50097  1.0000
  C   C12       1.0  0.27872  0.49972  0.50013  1.0000
  C   C13       1.0  0.22312  0.60011  0.50046  1.0000
  C   C14       1.0  0.05469  0.69966  0.50096  1.0000
  C   C15       1.0  0.11129  0.59969  0.50104  1.0000
  C   C16       1.0  0.28126  0.70040  0.50010  1.0000
  C   C17       1.0  0.22273  0.79970  0.50060  1.0000
  C   C18       1.0  0.05513  0.89936  0.50030  1.0000
  C   C19       1.0  0.11080  0.79955  0.50065  1.0000
  C   C20       1.0  0.27609  0.90056  0.50036  1.0000
  C   C21       1.0  0.55458  0.00031  0.50040  1.0000
  C   C22       1.0  0.38829  0.09937  0.50038  1.0000
  C   C23       1.0  0.44348  0.00052  0.50037  1.0000
  C   C24       1.0  0.61132  0.09823  0.50034  1.0000
  C   C25       1.0  0.55693  0.19608  0.50006  1.0000
  C   C26       1.0  0.44417  0.19790  0.50002  1.0000
  C   C27       1.0  0.55506  0.80481  0.50044  1.0000
  C   C28       1.0  0.38721  0.90195  0.50030  1.0000
  C   C29       1.0  0.44262  0.80405  0.49989  1.0000
  C   C30       1.0  0.61083  0.90224  0.50063  1.0000
  C   C31       1.0  0.88901  0.99977  0.50021  1.0000
  C   C32       1.0  0.72254  0.09874  0.50035  1.0000
  C   C33       1.0  0.77822  0.99948  0.50044  1.0000
  C   C34       1.0  0.94351  0.10044  0.50017  1.0000
  C   C35       1.0  0.88750  0.20010  0.50041  1.0000
  C   C36       1.0  0.71589  0.29736  0.49994  1.0000
  C   C37       1.0  0.77555  0.19919  0.50033  1.0000
  C   C38       1.0  0.94275  0.29993  0.50075  1.0000
  C   C39       1.0  0.88508  0.39914  0.50081  1.0000
  C   C40       1.0  0.71778  0.49976  0.49896  1.0000
  C   C41       1.0  0.77262  0.39835  0.50002  1.0000
  C   C42       1.0  0.94199  0.49928  0.50109  1.0000
  C   C43       1.0  0.88593  0.59950  0.50110  1.0000
  C   C44       1.0  0.71677  0.70052  0.50072  1.0000
  C   C45       1.0  0.77433  0.60041  0.50041  1.0000
  C   C46       1.0  0.94306  0.69953  0.50109  1.0000
  C   C47       1.0  0.88747  0.79953  0.50086  1.0000
  C   C48       1.0  0.72212  0.90023  0.50078  1.0000
  C   C49       1.0  0.77555  0.79978  0.50106  1.0000
  C   C50       1.0  0.94366  0.89926  0.50036  1.0000
  C   C51       1.0  0.39279  0.29860  0.49940  1.0000
  C   C52       1.0  0.38831  0.49886  0.49736  1.0000
  C   C53       1.0  0.39257  0.70254  0.49879  1.0000
  C   C54       1.0  0.60568  0.70454  0.50007  1.0000
  N   N1        1.0  0.60782  0.29298  0.49966  1.0000
  N   N2        1.0  0.61334  0.50135  0.49562  1.0000
  Fe  Fe1       1.0  0.50159  0.40913  0.49268  1.0000
  Fe  Fe2       1.0  0.50209  0.58944  0.49092  1.0000
