data_image0
_chemical_formula_structural       C49N7FeCr
_chemical_formula_sum              "C49 N7 Fe1 Cr1"
_cell_length_a       13.035
_cell_length_b       12.2731
_cell_length_c       19.8579
_cell_angle_alpha    89.9923
_cell_angle_beta     89.9828
_cell_angle_gamma    90.0651

_space_group_name_H-M_alt    "P 1"
_space_group_IT_number       1

loop_
  _space_group_symop_operation_xyz
  'x, y, z'

loop_
  _atom_site_type_symbol
  _atom_site_label
  _atom_site_symmetry_multiplicity
  _atom_site_fract_x
  _atom_site_fract_y
  _atom_site_fract_z
  _atom_site_occupancy
  C   C1        1.0  0.22796  0.00049  0.49983  1.0000
  C   C2        1.0  0.05834  0.09983  0.49999  1.0000
  C   C3        1.0  0.11565  0.00040  0.49996  1.0000
  C   C4        1.0  0.28265  0.10509  0.49956  1.0000
  C   C5        1.0  0.22283  0.20557  0.49951  1.0000
  C   C6        1.0  0.05088  0.29856  0.50006  1.0000
  C   C7        1.0  0.11150  0.20110  0.49988  1.0000
  C   C8        1.0  0.20870  0.39990  0.49967  1.0000
  C   C9        1.0  0.04750  0.49989  0.50032  1.0000
  C   C10       1.0  0.10159  0.39975  0.50014  1.0000
  C   C11       1.0  0.26240  0.49948  0.49935  1.0000
  C   C12       1.0  0.20885  0.60067  0.49991  1.0000
  C   C13       1.0  0.05068  0.70147  0.50016  1.0000
  C   C14       1.0  0.10178  0.60018  0.50027  1.0000
  C   C15       1.0  0.22145  0.79554  0.49994  1.0000
  C   C16       1.0  0.05775  0.90085  0.50002  1.0000
  C   C17       1.0  0.11042  0.79973  0.50006  1.0000
  C   C18       1.0  0.28225  0.89628  0.49989  1.0000
  C   C19       1.0  0.55843  0.99999  0.50007  1.0000
  C   C20       1.0  0.39504  0.10472  0.49953  1.0000
  C   C21       1.0  0.44802  0.00095  0.49991  1.0000
  C   C22       1.0  0.61469  0.09963  0.50002  1.0000
  C   C23       1.0  0.55920  0.19905  0.49960  1.0000
  C   C24       1.0  0.61407  0.30139  0.49954  1.0000
  C   C25       1.0  0.61034  0.49874  0.49948  1.0000
  C   C26       1.0  0.61429  0.69760  0.49981  1.0000
  C   C27       1.0  0.55875  0.80082  0.49997  1.0000
  C   C28       1.0  0.39478  0.89730  0.49991  1.0000
  C   C29       1.0  0.61474  0.90015  0.50015  1.0000
  C   C30       1.0  0.89111  0.00010  0.50008  1.0000
  C   C31       1.0  0.72471  0.09915  0.50014  1.0000
  C   C32       1.0  0.78077  0.99997  0.50015  1.0000
  C   C33       1.0  0.94691  0.09977  0.50009  1.0000
  C   C34       1.0  0.88891  0.19842  0.50013  1.0000
  C   C35       1.0  0.72278  0.29877  0.49992  1.0000
  C   C36       1.0  0.77899  0.19871  0.50011  1.0000
  C   C37       1.0  0.94196  0.29885  0.50014  1.0000
  C   C38       1.0  0.88589  0.39911  0.50016  1.0000
  C   C39       1.0  0.72112  0.49906  0.49991  1.0000
  C   C40       1.0  0.77686  0.39943  0.50001  1.0000
  C   C41       1.0  0.93940  0.49986  0.50023  1.0000
  C   C42       1.0  0.88551  0.60035  0.50012  1.0000
  C   C43       1.0  0.72276  0.70066  0.49999  1.0000
  C   C44       1.0  0.77657  0.59963  0.50002  1.0000
  C   C45       1.0  0.94172  0.70095  0.50008  1.0000
  C   C46       1.0  0.88886  0.80136  0.50002  1.0000
  C   C47       1.0  0.72472  0.90051  0.50014  1.0000
  C   C48       1.0  0.77896  0.80096  0.50006  1.0000
  C   C49       1.0  0.94665  0.90049  0.50002  1.0000
  N   N1        1.0  0.26932  0.30724  0.49918  1.0000
  N   N2        1.0  0.26694  0.69473  0.49969  1.0000
  N   N3        1.0  0.45279  0.20048  0.49919  1.0000
  N   N4        1.0  0.55793  0.39890  0.49913  1.0000
  N   N5        1.0  0.36579  0.49570  0.49835  1.0000
  N   N6        1.0  0.56046  0.59821  0.49936  1.0000
  N   N7        1.0  0.45236  0.80218  0.49982  1.0000
  Fe  Fe1       1.0  0.41117  0.35258  0.49848  1.0000
  Cr  Cr1       1.0  0.41297  0.64362  0.49875  1.0000
