data_image0
_chemical_formula_structural       C50N6FeCr
_chemical_formula_sum              "C50 N6 Fe1 Cr1"
_cell_length_a       12.7065
_cell_length_b       12.4809
_cell_length_c       20.0321
_cell_angle_alpha    90.0143
_cell_angle_beta     89.9878
_cell_angle_gamma    90.0056

_space_group_name_H-M_alt    "P 1"
_space_group_IT_number       1

loop_
  _space_group_symop_operation_xyz
  'x, y, z'

loop_
  _atom_site_type_symbol
  _atom_site_label
  _atom_site_symmetry_multiplicity
  _atom_site_fract_x
  _atom_site_fract_y
  _atom_site_fract_z
  _atom_site_occupancy
  C   C1        1.0  0.22108  0.99996  0.50001  1.0000
  C   C2        1.0  0.05528  0.10078  0.50002  1.0000
  C   C3        1.0  0.10954  0.99997  0.50000  1.0000
  C   C4        1.0  0.27667  0.09941  0.50001  1.0000
  C   C5        1.0  0.22409  0.20021  0.49998  1.0000
  C   C6        1.0  0.05567  0.30069  0.50002  1.0000
  C   C7        1.0  0.11134  0.20094  0.50002  1.0000
  C   C8        1.0  0.28387  0.29848  0.49989  1.0000
  C   C9        1.0  0.22668  0.39868  0.49991  1.0000
  C   C10       1.0  0.05623  0.49982  0.50002  1.0000
  C   C11       1.0  0.11317  0.39971  0.50000  1.0000
  C   C12       1.0  0.28242  0.49913  0.49981  1.0000
  C   C13       1.0  0.22697  0.60079  0.49996  1.0000
  C   C14       1.0  0.05566  0.69895  0.50003  1.0000
  C   C15       1.0  0.11339  0.59990  0.50002  1.0000
  C   C16       1.0  0.28333  0.70155  0.49999  1.0000
  C   C17       1.0  0.22371  0.79969  0.50001  1.0000
  C   C18       1.0  0.05520  0.89920  0.49999  1.0000
  C   C19       1.0  0.11109  0.79892  0.50001  1.0000
  C   C20       1.0  0.27652  0.90068  0.50002  1.0000
  C   C21       1.0  0.55453  0.00029  0.50005  1.0000
  C   C22       1.0  0.38815  0.09878  0.50001  1.0000
  C   C23       1.0  0.44389  0.00029  0.50005  1.0000
  C   C24       1.0  0.61029  0.09877  0.50001  1.0000
  C   C25       1.0  0.55525  0.19666  0.49990  1.0000
  C   C26       1.0  0.44321  0.19666  0.49990  1.0000
  C   C27       1.0  0.55528  0.80399  0.50003  1.0000
  C   C28       1.0  0.38814  0.90170  0.50004  1.0000
  C   C29       1.0  0.44312  0.80400  0.50003  1.0000
  C   C30       1.0  0.61026  0.90169  0.50004  1.0000
  C   C31       1.0  0.88887  0.99996  0.50000  1.0000
  C   C32       1.0  0.72177  0.09938  0.50001  1.0000
  C   C33       1.0  0.77733  0.99993  0.50002  1.0000
  C   C34       1.0  0.94316  0.10078  0.50002  1.0000
  C   C35       1.0  0.88711  0.20093  0.50002  1.0000
  C   C36       1.0  0.71458  0.29846  0.49989  1.0000
  C   C37       1.0  0.77436  0.20019  0.49999  1.0000
  C   C38       1.0  0.94279  0.30068  0.50003  1.0000
  C   C39       1.0  0.88528  0.39970  0.50000  1.0000
  C   C40       1.0  0.71602  0.49910  0.49983  1.0000
  C   C41       1.0  0.77177  0.39865  0.49991  1.0000
  C   C42       1.0  0.94221  0.49981  0.50003  1.0000
  C   C43       1.0  0.88503  0.59988  0.50002  1.0000
  C   C44       1.0  0.71507  0.70152  0.49999  1.0000
  C   C45       1.0  0.77146  0.60077  0.49997  1.0000
  C   C46       1.0  0.94274  0.69894  0.50003  1.0000
  C   C47       1.0  0.88730  0.79891  0.50001  1.0000
  C   C48       1.0  0.72188  0.90066  0.50002  1.0000
  C   C49       1.0  0.77468  0.79967  0.50001  1.0000
  C   C50       1.0  0.94319  0.89919  0.49999  1.0000
  N   N1        1.0  0.39352  0.29508  0.49978  1.0000
  N   N2        1.0  0.60494  0.29508  0.49978  1.0000
  N   N3        1.0  0.38777  0.49959  0.49957  1.0000
  N   N4        1.0  0.61068  0.49957  0.49960  1.0000
  N   N5        1.0  0.39291  0.70565  0.49997  1.0000
  N   N6        1.0  0.60549  0.70564  0.49997  1.0000
  Fe  Fe1       1.0  0.49922  0.40615  0.49957  1.0000
  Cr  Cr1       1.0  0.49923  0.58838  0.49968  1.0000
