data_image0
_chemical_formula_structural       C49N6FeCo
_chemical_formula_sum              "C49 N6 Fe1 Co1"
_cell_length_a       12.8655
_cell_length_b       12.2738
_cell_length_c       20.1208
_cell_angle_alpha    89.9907
_cell_angle_beta     89.9308
_cell_angle_gamma    89.1255

_space_group_name_H-M_alt    "P 1"
_space_group_IT_number       1

loop_
  _space_group_symop_operation_xyz
  'x, y, z'

loop_
  _atom_site_type_symbol
  _atom_site_label
  _atom_site_symmetry_multiplicity
  _atom_site_fract_x
  _atom_site_fract_y
  _atom_site_fract_z
  _atom_site_occupancy
  C   C1        1.0  0.22094  0.99929  0.50009  1.0000
  C   C2        1.0  0.05238  0.10090  0.50010  1.0000
  C   C3        1.0  0.10964  0.00054  0.50007  1.0000
  C   C4        1.0  0.27501  0.09932  0.49996  1.0000
  C   C5        1.0  0.21796  0.19955  0.49992  1.0000
  C   C6        1.0  0.05170  0.30112  0.50008  1.0000
  C   C7        1.0  0.10702  0.20055  0.50009  1.0000
  C   C8        1.0  0.27318  0.29810  0.49955  1.0000
  C   C9        1.0  0.21843  0.39993  0.49963  1.0000
  C   C10       1.0  0.05503  0.50146  0.49999  1.0000
  C   C11       1.0  0.10852  0.40006  0.49994  1.0000
  C   C12       1.0  0.22568  0.59502  0.49976  1.0000
  C   C13       1.0  0.05763  0.70081  0.49998  1.0000
  C   C14       1.0  0.11401  0.59986  0.49994  1.0000
  C   C15       1.0  0.28427  0.69735  0.49993  1.0000
  C   C16       1.0  0.22427  0.79770  0.50003  1.0000
  C   C17       1.0  0.05535  0.90079  0.49999  1.0000
  C   C18       1.0  0.11264  0.80008  0.49999  1.0000
  C   C19       1.0  0.27824  0.89835  0.50009  1.0000
  C   C20       1.0  0.55344  0.00143  0.49994  1.0000
  C   C21       1.0  0.38583  0.10107  0.49983  1.0000
  C   C22       1.0  0.44286  0.00011  0.49998  1.0000
  C   C23       1.0  0.60646  0.10431  0.49991  1.0000
  C   C24       1.0  0.54945  0.20607  0.49976  1.0000
  C   C25       1.0  0.43762  0.20468  0.49954  1.0000
  C   C26       1.0  0.60533  0.30858  0.49999  1.0000
  C   C27       1.0  0.55782  0.79521  0.50014  1.0000
  C   C28       1.0  0.38931  0.89783  0.50008  1.0000
  C   C29       1.0  0.44310  0.79336  0.50008  1.0000
  C   C30       1.0  0.60951  0.89952  0.50002  1.0000
  C   C31       1.0  0.88636  0.00282  0.49994  1.0000
  C   C32       1.0  0.71807  0.10530  0.50000  1.0000
  C   C33       1.0  0.77480  0.00415  0.49994  1.0000
  C   C34       1.0  0.94101  0.10263  0.50005  1.0000
  C   C35       1.0  0.88471  0.20367  0.50013  1.0000
  C   C36       1.0  0.71789  0.30859  0.50029  1.0000
  C   C37       1.0  0.77307  0.20641  0.50016  1.0000
  C   C38       1.0  0.94054  0.30300  0.50014  1.0000
  C   C39       1.0  0.88629  0.40469  0.50021  1.0000
  C   C40       1.0  0.77456  0.40936  0.50039  1.0000
  C   C41       1.0  0.94465  0.50283  0.50012  1.0000
  C   C42       1.0  0.89004  0.60394  0.50013  1.0000
  C   C43       1.0  0.72287  0.70466  0.50023  1.0000
  C   C44       1.0  0.78037  0.60408  0.50033  1.0000
  C   C45       1.0  0.94640  0.70280  0.49999  1.0000
  C   C46       1.0  0.88967  0.80270  0.49994  1.0000
  C   C47       1.0  0.72083  0.90317  0.49996  1.0000
  C   C48       1.0  0.77828  0.80343  0.50001  1.0000
  C   C49       1.0  0.94386  0.90257  0.49993  1.0000
  N   N1        1.0  0.27589  0.49502  0.49943  1.0000
  N   N2        1.0  0.38033  0.30039  0.49917  1.0000
  N   N3        1.0  0.55381  0.40395  0.49985  1.0000
  N   N4        1.0  0.39082  0.69702  0.49998  1.0000
  N   N5        1.0  0.61525  0.69959  0.50029  1.0000
  N   N6        1.0  0.72452  0.50915  0.50055  1.0000
  Fe  Fe1       1.0  0.42328  0.45479  0.49893  1.0000
  Co  Co1       1.0  0.57967  0.54618  0.50025  1.0000
