data_image0
_chemical_formula_structural       C50N6CoFe
_chemical_formula_sum              "C50 N6 Co1 Fe1"
_cell_length_a       12.6683
_cell_length_b       12.4646
_cell_length_c       20.119
_cell_angle_alpha    90.0174
_cell_angle_beta     89.9877
_cell_angle_gamma    90.0066

_space_group_name_H-M_alt    "P 1"
_space_group_IT_number       1

loop_
  _space_group_symop_operation_xyz
  'x, y, z'

loop_
  _atom_site_type_symbol
  _atom_site_label
  _atom_site_symmetry_multiplicity
  _atom_site_fract_x
  _atom_site_fract_y
  _atom_site_fract_z
  _atom_site_occupancy
  C   C1        1.0  0.22109  0.99984  0.50001  1.0000
  C   C2        1.0  0.05529  0.10087  0.50002  1.0000
  C   C3        1.0  0.10947  0.99990  0.50000  1.0000
  C   C4        1.0  0.27669  0.09946  0.50000  1.0000
  C   C5        1.0  0.22432  0.20044  0.49997  1.0000
  C   C6        1.0  0.05592  0.30111  0.50002  1.0000
  C   C7        1.0  0.11149  0.20123  0.50001  1.0000
  C   C8        1.0  0.28457  0.29895  0.49988  1.0000
  C   C9        1.0  0.22800  0.39909  0.49990  1.0000
  C   C10       1.0  0.05635  0.49986  0.50002  1.0000
  C   C11       1.0  0.11413  0.40009  0.49999  1.0000
  C   C12       1.0  0.28540  0.49967  0.49983  1.0000
  C   C13       1.0  0.22805  0.60076  0.49996  1.0000
  C   C14       1.0  0.05587  0.69860  0.50002  1.0000
  C   C15       1.0  0.11415  0.59966  0.50002  1.0000
  C   C16       1.0  0.28431  0.70088  0.49998  1.0000
  C   C17       1.0  0.22421  0.79929  0.50001  1.0000
  C   C18       1.0  0.05527  0.89895  0.50000  1.0000
  C   C19       1.0  0.11143  0.79854  0.50001  1.0000
  C   C20       1.0  0.27663  0.90044  0.50002  1.0000
  C   C21       1.0  0.55465  0.00005  0.50005  1.0000
  C   C22       1.0  0.38813  0.09872  0.50000  1.0000
  C   C23       1.0  0.44377  0.00006  0.50005  1.0000
  C   C24       1.0  0.61031  0.09870  0.50000  1.0000
  C   C25       1.0  0.55532  0.19713  0.49989  1.0000
  C   C26       1.0  0.44315  0.19714  0.49989  1.0000
  C   C27       1.0  0.55515  0.80306  0.50001  1.0000
  C   C28       1.0  0.38819  0.90130  0.50004  1.0000
  C   C29       1.0  0.44323  0.80307  0.50001  1.0000
  C   C30       1.0  0.61020  0.90129  0.50004  1.0000
  C   C31       1.0  0.88895  0.99988  0.50001  1.0000
  C   C32       1.0  0.72176  0.09943  0.50001  1.0000
  C   C33       1.0  0.77733  0.99981  0.50002  1.0000
  C   C34       1.0  0.94315  0.10085  0.50002  1.0000
  C   C35       1.0  0.88698  0.20121  0.50002  1.0000
  C   C36       1.0  0.71391  0.29891  0.49989  1.0000
  C   C37       1.0  0.77415  0.20041  0.49998  1.0000
  C   C38       1.0  0.94256  0.30110  0.50002  1.0000
  C   C39       1.0  0.88433  0.40006  0.50000  1.0000
  C   C40       1.0  0.71303  0.49961  0.49983  1.0000
  C   C41       1.0  0.77046  0.39906  0.49991  1.0000
  C   C42       1.0  0.94209  0.49985  0.50002  1.0000
  C   C43       1.0  0.88426  0.59964  0.50002  1.0000
  C   C44       1.0  0.71407  0.70084  0.49998  1.0000
  C   C45       1.0  0.77035  0.60073  0.49996  1.0000
  C   C46       1.0  0.94251  0.69859  0.50002  1.0000
  C   C47       1.0  0.88695  0.79852  0.50001  1.0000
  C   C48       1.0  0.72177  0.90041  0.50002  1.0000
  C   C49       1.0  0.77417  0.79926  0.50001  1.0000
  C   C50       1.0  0.94312  0.89893  0.50000  1.0000
  N   N1        1.0  0.39421  0.29535  0.49978  1.0000
  N   N2        1.0  0.60427  0.29533  0.49979  1.0000
  N   N3        1.0  0.39076  0.50005  0.49964  1.0000
  N   N4        1.0  0.60768  0.50001  0.49962  1.0000
  N   N5        1.0  0.39418  0.70449  0.49994  1.0000
  N   N6        1.0  0.60419  0.70447  0.49995  1.0000
  Co  Co1       1.0  0.49922  0.40740  0.49963  1.0000
  Fe  Fe1       1.0  0.49923  0.59017  0.49973  1.0000
