data_image0
_chemical_formula_structural       C50N6CuFe
_chemical_formula_sum              "C50 N6 Cu1 Fe1"
_cell_length_a       12.6997
_cell_length_b       12.5284
_cell_length_c       19.967
_cell_angle_alpha    90.0086
_cell_angle_beta     89.9876
_cell_angle_gamma    90.0041

_space_group_name_H-M_alt    "P 1"
_space_group_IT_number       1

loop_
  _space_group_symop_operation_xyz
  'x, y, z'

loop_
  _atom_site_type_symbol
  _atom_site_label
  _atom_site_symmetry_multiplicity
  _atom_site_fract_x
  _atom_site_fract_y
  _atom_site_fract_z
  _atom_site_occupancy
  C   C1        1.0  0.22065  0.99968  0.50001  1.0000
  C   C2        1.0  0.05507  0.10037  0.50001  1.0000
  C   C3        1.0  0.10925  0.99975  0.50000  1.0000
  C   C4        1.0  0.27605  0.09887  0.50002  1.0000
  C   C5        1.0  0.22278  0.19923  0.49999  1.0000
  C   C6        1.0  0.05578  0.30104  0.50001  1.0000
  C   C7        1.0  0.11053  0.20066  0.50002  1.0000
  C   C8        1.0  0.28267  0.29728  0.49986  1.0000
  C   C9        1.0  0.22780  0.39904  0.49990  1.0000
  C   C10       1.0  0.05626  0.49999  0.50001  1.0000
  C   C11       1.0  0.11422  0.40013  0.49999  1.0000
  C   C12       1.0  0.28542  0.50077  0.49986  1.0000
  C   C13       1.0  0.22707  0.60152  0.50000  1.0000
  C   C14       1.0  0.05565  0.69905  0.50002  1.0000
  C   C15       1.0  0.11361  0.60007  0.50002  1.0000
  C   C16       1.0  0.28317  0.70197  0.50000  1.0000
  C   C17       1.0  0.22350  0.80011  0.50000  1.0000
  C   C18       1.0  0.05513  0.89908  0.50000  1.0000
  C   C19       1.0  0.11093  0.79894  0.50000  1.0000
  C   C20       1.0  0.27620  0.90067  0.50000  1.0000
  C   C21       1.0  0.55474  0.99967  0.50007  1.0000
  C   C22       1.0  0.38776  0.09728  0.50006  1.0000
  C   C23       1.0  0.44371  0.99970  0.50007  1.0000
  C   C24       1.0  0.61070  0.09726  0.50006  1.0000
  C   C25       1.0  0.55623  0.19507  0.49993  1.0000
  C   C26       1.0  0.44225  0.19510  0.49991  1.0000
  C   C27       1.0  0.55552  0.80469  0.50000  1.0000
  C   C28       1.0  0.38784  0.90194  0.50002  1.0000
  C   C29       1.0  0.44287  0.80471  0.50000  1.0000
  C   C30       1.0  0.61059  0.90191  0.50002  1.0000
  C   C31       1.0  0.88917  0.99972  0.50000  1.0000
  C   C32       1.0  0.72241  0.09884  0.50003  1.0000
  C   C33       1.0  0.77777  0.99965  0.50001  1.0000
  C   C34       1.0  0.94339  0.10035  0.50001  1.0000
  C   C35       1.0  0.88798  0.20064  0.50002  1.0000
  C   C36       1.0  0.71584  0.29719  0.49988  1.0000
  C   C37       1.0  0.77573  0.19918  0.50000  1.0000
  C   C38       1.0  0.94274  0.30103  0.50001  1.0000
  C   C39       1.0  0.88428  0.40008  0.49999  1.0000
  C   C40       1.0  0.71296  0.50065  0.49987  1.0000
  C   C41       1.0  0.77067  0.39895  0.49991  1.0000
  C   C42       1.0  0.94217  0.49997  0.50002  1.0000
  C   C43       1.0  0.88474  0.60000  0.50002  1.0000
  C   C44       1.0  0.71519  0.70189  0.50001  1.0000
  C   C45       1.0  0.77128  0.60141  0.50000  1.0000
  C   C46       1.0  0.94267  0.69899  0.50002  1.0000
  C   C47       1.0  0.88743  0.79890  0.50000  1.0000
  C   C48       1.0  0.72222  0.90062  0.50000  1.0000
  C   C49       1.0  0.77487  0.80004  0.50000  1.0000
  C   C50       1.0  0.94324  0.89905  0.50000  1.0000
  N   N1        1.0  0.39058  0.29026  0.49969  1.0000
  N   N2        1.0  0.60795  0.29019  0.49973  1.0000
  N   N3        1.0  0.38954  0.50377  0.49967  1.0000
  N   N4        1.0  0.60885  0.50372  0.49966  1.0000
  N   N5        1.0  0.39257  0.70754  0.50000  1.0000
  N   N6        1.0  0.60579  0.70751  0.50000  1.0000
  Cu  Cu1       1.0  0.49925  0.39922  0.49924  1.0000
  Fe  Fe1       1.0  0.49918  0.59768  0.49985  1.0000
