data_image0
_chemical_formula_structural       C50N6Fe2
_chemical_formula_sum              "C50 N6 Fe2"
_cell_length_a       12.6745
_cell_length_b       12.4621
_cell_length_c       20.1131
_cell_angle_alpha    90.018
_cell_angle_beta     89.9909
_cell_angle_gamma    90.0029

_space_group_name_H-M_alt    "P 1"
_space_group_IT_number       1

loop_
  _space_group_symop_operation_xyz
  'x, y, z'

loop_
  _atom_site_type_symbol
  _atom_site_label
  _atom_site_symmetry_multiplicity
  _atom_site_fract_x
  _atom_site_fract_y
  _atom_site_fract_z
  _atom_site_occupancy
  C   C1        1.0  0.22104  0.99988  0.50001  1.0000
  C   C2        1.0  0.05528  0.10086  0.50002  1.0000
  C   C3        1.0  0.10949  0.99989  0.50000  1.0000
  C   C4        1.0  0.27662  0.09935  0.50001  1.0000
  C   C5        1.0  0.22420  0.20039  0.49999  1.0000
  C   C6        1.0  0.05585  0.30103  0.50002  1.0000
  C   C7        1.0  0.11142  0.20116  0.50002  1.0000
  C   C8        1.0  0.28425  0.29879  0.49989  1.0000
  C   C9        1.0  0.22762  0.39894  0.49991  1.0000
  C   C10       1.0  0.05627  0.49988  0.50002  1.0000
  C   C11       1.0  0.11393  0.40001  0.50000  1.0000
  C   C12       1.0  0.28446  0.49991  0.49982  1.0000
  C   C13       1.0  0.22757  0.60087  0.49997  1.0000
  C   C14       1.0  0.05578  0.69875  0.50002  1.0000
  C   C15       1.0  0.11388  0.59978  0.50002  1.0000
  C   C16       1.0  0.28419  0.70098  0.49999  1.0000
  C   C17       1.0  0.22415  0.79939  0.50001  1.0000
  C   C18       1.0  0.05523  0.89893  0.49999  1.0000
  C   C19       1.0  0.11137  0.79863  0.50000  1.0000
  C   C20       1.0  0.27661  0.90041  0.50001  1.0000
  C   C21       1.0  0.55466  0.99983  0.50005  1.0000
  C   C22       1.0  0.38815  0.09855  0.50001  1.0000
  C   C23       1.0  0.44376  0.99985  0.50005  1.0000
  C   C24       1.0  0.61028  0.09853  0.50002  1.0000
  C   C25       1.0  0.55534  0.19681  0.49991  1.0000
  C   C26       1.0  0.44312  0.19681  0.49990  1.0000
  C   C27       1.0  0.55529  0.80289  0.50002  1.0000
  C   C28       1.0  0.38814  0.90117  0.50003  1.0000
  C   C29       1.0  0.44310  0.80289  0.50001  1.0000
  C   C30       1.0  0.61027  0.90115  0.50003  1.0000
  C   C31       1.0  0.88891  0.99988  0.50000  1.0000
  C   C32       1.0  0.72181  0.09933  0.50002  1.0000
  C   C33       1.0  0.77737  0.99987  0.50001  1.0000
  C   C34       1.0  0.94317  0.10085  0.50002  1.0000
  C   C35       1.0  0.88706  0.20115  0.50002  1.0000
  C   C36       1.0  0.71424  0.29876  0.49990  1.0000
  C   C37       1.0  0.77427  0.20036  0.49999  1.0000
  C   C38       1.0  0.94265  0.30102  0.50003  1.0000
  C   C39       1.0  0.88455  0.39998  0.50001  1.0000
  C   C40       1.0  0.71398  0.49986  0.49983  1.0000
  C   C41       1.0  0.77085  0.39890  0.49992  1.0000
  C   C42       1.0  0.94218  0.49987  0.50002  1.0000
  C   C43       1.0  0.88452  0.59975  0.50002  1.0000
  C   C44       1.0  0.71419  0.70094  0.50000  1.0000
  C   C45       1.0  0.77083  0.60083  0.49998  1.0000
  C   C46       1.0  0.94259  0.69874  0.50002  1.0000
  C   C47       1.0  0.88699  0.79861  0.50001  1.0000
  C   C48       1.0  0.72180  0.90039  0.50001  1.0000
  C   C49       1.0  0.77422  0.79936  0.50001  1.0000
  C   C50       1.0  0.94312  0.89892  0.49999  1.0000
  N   N1        1.0  0.39402  0.29522  0.49979  1.0000
  N   N2        1.0  0.60447  0.29520  0.49980  1.0000
  N   N3        1.0  0.38961  0.49992  0.49959  1.0000
  N   N4        1.0  0.60883  0.49990  0.49958  1.0000
  N   N5        1.0  0.39399  0.70447  0.49996  1.0000
  N   N6        1.0  0.60439  0.70445  0.49996  1.0000
  Fe  Fe1       1.0  0.49925  0.40959  0.49956  1.0000
  Fe  Fe2       1.0  0.49921  0.59014  0.49970  1.0000
