data_image0
_chemical_formula_structural       C50N6FeMn
_chemical_formula_sum              "C50 N6 Fe1 Mn1"
_cell_length_a       12.6957
_cell_length_b       12.472
_cell_length_c       20.0636
_cell_angle_alpha    90.0156
_cell_angle_beta     89.988
_cell_angle_gamma    90.0051

_space_group_name_H-M_alt    "P 1"
_space_group_IT_number       1

loop_
  _space_group_symop_operation_xyz
  'x, y, z'

loop_
  _atom_site_type_symbol
  _atom_site_label
  _atom_site_symmetry_multiplicity
  _atom_site_fract_x
  _atom_site_fract_y
  _atom_site_fract_z
  _atom_site_occupancy
  C   C1        1.0  0.22111  0.99998  0.50001  1.0000
  C   C2        1.0  0.05531  0.10084  0.50001  1.0000
  C   C3        1.0  0.10951  0.99994  0.50000  1.0000
  C   C4        1.0  0.27665  0.09945  0.50001  1.0000
  C   C5        1.0  0.22417  0.20039  0.49998  1.0000
  C   C6        1.0  0.05579  0.30093  0.50002  1.0000
  C   C7        1.0  0.11138  0.20110  0.50001  1.0000
  C   C8        1.0  0.28404  0.29874  0.49988  1.0000
  C   C9        1.0  0.22720  0.39886  0.49991  1.0000
  C   C10       1.0  0.05631  0.49983  0.50003  1.0000
  C   C11       1.0  0.11349  0.39993  0.50000  1.0000
  C   C12       1.0  0.28360  0.49936  0.49982  1.0000
  C   C13       1.0  0.22746  0.60054  0.49997  1.0000
  C   C14       1.0  0.05579  0.69871  0.50003  1.0000
  C   C15       1.0  0.11365  0.59967  0.50002  1.0000
  C   C16       1.0  0.28361  0.70119  0.49999  1.0000
  C   C17       1.0  0.22386  0.79954  0.50001  1.0000
  C   C18       1.0  0.05525  0.89905  0.50000  1.0000
  C   C19       1.0  0.11117  0.79873  0.50001  1.0000
  C   C20       1.0  0.27655  0.90053  0.50002  1.0000
  C   C21       1.0  0.55458  0.00015  0.50005  1.0000
  C   C22       1.0  0.38815  0.09869  0.50001  1.0000
  C   C23       1.0  0.44384  0.00016  0.50005  1.0000
  C   C24       1.0  0.61029  0.09868  0.50001  1.0000
  C   C25       1.0  0.55525  0.19658  0.49990  1.0000
  C   C26       1.0  0.44321  0.19659  0.49990  1.0000
  C   C27       1.0  0.55530  0.80378  0.50001  1.0000
  C   C28       1.0  0.38810  0.90166  0.50004  1.0000
  C   C29       1.0  0.44309  0.80379  0.50002  1.0000
  C   C30       1.0  0.61030  0.90165  0.50004  1.0000
  C   C31       1.0  0.88892  0.99993  0.50000  1.0000
  C   C32       1.0  0.72179  0.09943  0.50001  1.0000
  C   C33       1.0  0.77731  0.99995  0.50002  1.0000
  C   C34       1.0  0.94314  0.10083  0.50002  1.0000
  C   C35       1.0  0.88709  0.20108  0.50002  1.0000
  C   C36       1.0  0.71443  0.29871  0.49989  1.0000
  C   C37       1.0  0.77429  0.20036  0.49999  1.0000
  C   C38       1.0  0.94267  0.30092  0.50002  1.0000
  C   C39       1.0  0.88497  0.39991  0.50001  1.0000
  C   C40       1.0  0.71484  0.49931  0.49983  1.0000
  C   C41       1.0  0.77125  0.39883  0.49992  1.0000
  C   C42       1.0  0.94212  0.49983  0.50003  1.0000
  C   C43       1.0  0.88477  0.59965  0.50003  1.0000
  C   C44       1.0  0.71478  0.70116  0.49999  1.0000
  C   C45       1.0  0.77095  0.60051  0.49997  1.0000
  C   C46       1.0  0.94260  0.69870  0.50003  1.0000
  C   C47       1.0  0.88721  0.79871  0.50001  1.0000
  C   C48       1.0  0.72185  0.90050  0.50002  1.0000
  C   C49       1.0  0.77452  0.79951  0.50001  1.0000
  C   C50       1.0  0.94315  0.89904  0.50000  1.0000
  N   N1        1.0  0.39378  0.29511  0.49977  1.0000
  N   N2        1.0  0.60469  0.29510  0.49979  1.0000
  N   N3        1.0  0.38893  0.49886  0.49958  1.0000
  N   N4        1.0  0.60950  0.49884  0.49959  1.0000
  N   N5        1.0  0.39319  0.70552  0.49996  1.0000
  N   N6        1.0  0.60520  0.70551  0.49996  1.0000
  Fe  Fe1       1.0  0.49922  0.40720  0.49957  1.0000
  Mn  Mn1       1.0  0.49922  0.59054  0.49971  1.0000
