data_image0
_chemical_formula_structural       C50N6NiFe
_chemical_formula_sum              "C50 N6 Ni1 Fe1"
_cell_length_a       12.6636
_cell_length_b       12.5036
_cell_length_c       20.0637
_cell_angle_alpha    90.0095
_cell_angle_beta     89.9879
_cell_angle_gamma    90.0055

_space_group_name_H-M_alt    "P 1"
_space_group_IT_number       1

loop_
  _space_group_symop_operation_xyz
  'x, y, z'

loop_
  _atom_site_type_symbol
  _atom_site_label
  _atom_site_symmetry_multiplicity
  _atom_site_fract_x
  _atom_site_fract_y
  _atom_site_fract_z
  _atom_site_occupancy
  C   C1        1.0  0.22073  0.99998  0.50001  1.0000
  C   C2        1.0  0.05521  0.10084  0.50002  1.0000
  C   C3        1.0  0.10921  0.99997  0.50000  1.0000
  C   C4        1.0  0.27629  0.09926  0.50001  1.0000
  C   C5        1.0  0.22387  0.20009  0.49998  1.0000
  C   C6        1.0  0.05594  0.30123  0.50002  1.0000
  C   C7        1.0  0.11121  0.20119  0.50001  1.0000
  C   C8        1.0  0.28406  0.29843  0.49987  1.0000
  C   C9        1.0  0.22834  0.39894  0.49990  1.0000
  C   C10       1.0  0.05642  0.49988  0.50002  1.0000
  C   C11       1.0  0.11443  0.40011  0.49999  1.0000
  C   C12       1.0  0.28731  0.49926  0.49984  1.0000
  C   C13       1.0  0.22862  0.60059  0.49998  1.0000
  C   C14       1.0  0.05589  0.69849  0.50002  1.0000
  C   C15       1.0  0.11457  0.59957  0.50002  1.0000
  C   C16       1.0  0.28377  0.70160  0.50000  1.0000
  C   C17       1.0  0.22367  0.79983  0.50000  1.0000
  C   C18       1.0  0.05516  0.89905  0.49999  1.0000
  C   C19       1.0  0.11102  0.79867  0.50000  1.0000
  C   C20       1.0  0.27621  0.90072  0.50001  1.0000
  C   C21       1.0  0.55476  0.00021  0.50006  1.0000
  C   C22       1.0  0.38789  0.09810  0.50002  1.0000
  C   C23       1.0  0.44367  0.00022  0.50006  1.0000
  C   C24       1.0  0.61056  0.09809  0.50002  1.0000
  C   C25       1.0  0.55554  0.19583  0.49989  1.0000
  C   C26       1.0  0.44294  0.19585  0.49988  1.0000
  C   C27       1.0  0.55548  0.80472  0.50001  1.0000
  C   C28       1.0  0.38783  0.90224  0.50003  1.0000
  C   C29       1.0  0.44285  0.80474  0.50001  1.0000
  C   C30       1.0  0.61056  0.90221  0.50003  1.0000
  C   C31       1.0  0.88919  0.99994  0.50000  1.0000
  C   C32       1.0  0.72216  0.09924  0.50002  1.0000
  C   C33       1.0  0.77768  0.99996  0.50001  1.0000
  C   C34       1.0  0.94324  0.10082  0.50002  1.0000
  C   C35       1.0  0.88731  0.20118  0.50002  1.0000
  C   C36       1.0  0.71448  0.29835  0.49988  1.0000
  C   C37       1.0  0.77465  0.20004  0.49998  1.0000
  C   C38       1.0  0.94260  0.30122  0.50002  1.0000
  C   C39       1.0  0.88408  0.40007  0.50000  1.0000
  C   C40       1.0  0.71114  0.49914  0.49983  1.0000
  C   C41       1.0  0.77017  0.39886  0.49990  1.0000
  C   C42       1.0  0.94203  0.49986  0.50002  1.0000
  C   C43       1.0  0.88378  0.59950  0.50002  1.0000
  C   C44       1.0  0.71455  0.70152  0.50001  1.0000
  C   C45       1.0  0.76973  0.60049  0.49998  1.0000
  C   C46       1.0  0.94243  0.69845  0.50002  1.0000
  C   C47       1.0  0.88732  0.79863  0.50000  1.0000
  C   C48       1.0  0.72218  0.90067  0.50001  1.0000
  C   C49       1.0  0.77467  0.79976  0.50001  1.0000
  C   C50       1.0  0.94322  0.89902  0.49999  1.0000
  N   N1        1.0  0.39321  0.29300  0.49976  1.0000
  N   N2        1.0  0.60534  0.29295  0.49977  1.0000
  N   N3        1.0  0.39230  0.50010  0.49963  1.0000
  N   N4        1.0  0.60615  0.50009  0.49959  1.0000
  N   N5        1.0  0.39313  0.70736  0.49999  1.0000
  N   N6        1.0  0.60518  0.70733  0.49999  1.0000
  Ni  Ni1       1.0  0.49927  0.39880  0.49959  1.0000
  Fe  Fe1       1.0  0.49919  0.59631  0.49977  1.0000
