data_image0
_chemical_formula_structural       C50N6FeSc
_chemical_formula_sum              "C50 N6 Fe1 Sc1"
_cell_length_a       12.7082
_cell_length_b       12.4915
_cell_length_c       20.0125
_cell_angle_alpha    89.9874
_cell_angle_beta     90.009
_cell_angle_gamma    89.9973

_space_group_name_H-M_alt    "P 1"
_space_group_IT_number       1

loop_
  _space_group_symop_operation_xyz
  'x, y, z'

loop_
  _atom_site_type_symbol
  _atom_site_label
  _atom_site_symmetry_multiplicity
  _atom_site_fract_x
  _atom_site_fract_y
  _atom_site_fract_z
  _atom_site_occupancy
  C   C1        1.0  0.22100  0.99999  0.50486  1.0000
  C   C2        1.0  0.05519  0.10070  0.50571  1.0000
  C   C3        1.0  0.10946  0.99998  0.50506  1.0000
  C   C4        1.0  0.27653  0.09927  0.50632  1.0000
  C   C5        1.0  0.22364  0.20003  0.50595  1.0000
  C   C6        1.0  0.05575  0.30095  0.50449  1.0000
  C   C7        1.0  0.11111  0.20099  0.50554  1.0000
  C   C8        1.0  0.28340  0.29824  0.50429  1.0000
  C   C9        1.0  0.22729  0.39885  0.50099  1.0000
  C   C10       1.0  0.05620  0.49970  0.50068  1.0000
  C   C11       1.0  0.11367  0.39988  0.50234  1.0000
  C   C12       1.0  0.28488  0.49868  0.49300  1.0000
  C   C13       1.0  0.22727  0.60026  0.49471  1.0000
  C   C14       1.0  0.05572  0.69857  0.50096  1.0000
  C   C15       1.0  0.11380  0.59949  0.49903  1.0000
  C   C16       1.0  0.28207  0.70229  0.49428  1.0000
  C   C17       1.0  0.22270  0.80020  0.50015  1.0000
  C   C18       1.0  0.05505  0.89938  0.50407  1.0000
  C   C19       1.0  0.11056  0.79899  0.50211  1.0000
  C   C20       1.0  0.27638  0.90069  0.50210  1.0000
  C   C21       1.0  0.55464  0.99986  0.50516  1.0000
  C   C22       1.0  0.38806  0.09824  0.50727  1.0000
  C   C23       1.0  0.44380  0.99988  0.50519  1.0000
  C   C24       1.0  0.61037  0.09822  0.50723  1.0000
  C   C25       1.0  0.55551  0.19610  0.50771  1.0000
  C   C26       1.0  0.44291  0.19612  0.50771  1.0000
  C   C27       1.0  0.55611  0.80373  0.49462  1.0000
  C   C28       1.0  0.38809  0.90188  0.50114  1.0000
  C   C29       1.0  0.44236  0.80375  0.49463  1.0000
  C   C30       1.0  0.61036  0.90187  0.50110  1.0000
  C   C31       1.0  0.88897  0.99999  0.50506  1.0000
  C   C32       1.0  0.72189  0.09927  0.50628  1.0000
  C   C33       1.0  0.77743  0.00000  0.50484  1.0000
  C   C34       1.0  0.94325  0.10070  0.50571  1.0000
  C   C35       1.0  0.88732  0.20097  0.50555  1.0000
  C   C36       1.0  0.71502  0.29822  0.50430  1.0000
  C   C37       1.0  0.77478  0.20002  0.50594  1.0000
  C   C38       1.0  0.94267  0.30095  0.50450  1.0000
  C   C39       1.0  0.88474  0.39987  0.50237  1.0000
  C   C40       1.0  0.71354  0.49867  0.49299  1.0000
  C   C41       1.0  0.77111  0.39882  0.50101  1.0000
  C   C42       1.0  0.94220  0.49970  0.50070  1.0000
  C   C43       1.0  0.88462  0.59950  0.49908  1.0000
  C   C44       1.0  0.71635  0.70228  0.49431  1.0000
  C   C45       1.0  0.77116  0.60026  0.49475  1.0000
  C   C46       1.0  0.94269  0.69858  0.50100  1.0000
  C   C47       1.0  0.88785  0.79900  0.50216  1.0000
  C   C48       1.0  0.72206  0.90070  0.50209  1.0000
  C   C49       1.0  0.77572  0.80021  0.50018  1.0000
  C   C50       1.0  0.94335  0.89938  0.50408  1.0000
  N   N1        1.0  0.39254  0.29364  0.50521  1.0000
  N   N2        1.0  0.60590  0.29361  0.50521  1.0000
  N   N3        1.0  0.38895  0.49862  0.48255  1.0000
  N   N4        1.0  0.60949  0.49864  0.48246  1.0000
  N   N5        1.0  0.39003  0.70820  0.48820  1.0000
  N   N6        1.0  0.60839  0.70816  0.48821  1.0000
  Fe  Fe1       1.0  0.49925  0.40307  0.49614  1.0000
  Sc  Sc1       1.0  0.49919  0.59475  0.44423  1.0000
