data_image0
_chemical_formula_structural       C50N6FeTi
_chemical_formula_sum              "C50 N6 Fe1 Ti1"
_cell_length_a       12.7224
_cell_length_b       12.477
_cell_length_c       20.0135
_cell_angle_alpha    90.0484
_cell_angle_beta     89.9993
_cell_angle_gamma    89.9991

_space_group_name_H-M_alt    "P 1"
_space_group_IT_number       1

loop_
  _space_group_symop_operation_xyz
  'x, y, z'

loop_
  _atom_site_type_symbol
  _atom_site_label
  _atom_site_symmetry_multiplicity
  _atom_site_fract_x
  _atom_site_fract_y
  _atom_site_fract_z
  _atom_site_occupancy
  C   C1        1.0  0.22111  0.99991  0.50450  1.0000
  C   C2        1.0  0.05525  0.10068  0.50461  1.0000
  C   C3        1.0  0.10954  0.99993  0.50423  1.0000
  C   C4        1.0  0.27668  0.09943  0.50531  1.0000
  C   C5        1.0  0.22397  0.20010  0.50417  1.0000
  C   C6        1.0  0.05561  0.30052  0.50355  1.0000
  C   C7        1.0  0.11126  0.20084  0.50428  1.0000
  C   C8        1.0  0.28363  0.29839  0.50184  1.0000
  C   C9        1.0  0.22630  0.39851  0.49995  1.0000
  C   C10       1.0  0.05613  0.49979  0.50061  1.0000
  C   C11       1.0  0.11308  0.39959  0.50174  1.0000
  C   C12       1.0  0.28222  0.49853  0.49361  1.0000
  C   C13       1.0  0.22670  0.60071  0.49552  1.0000
  C   C14       1.0  0.05565  0.69891  0.50092  1.0000
  C   C15       1.0  0.11336  0.59989  0.49928  1.0000
  C   C16       1.0  0.28255  0.70184  0.49541  1.0000
  C   C17       1.0  0.22328  0.79990  0.50059  1.0000
  C   C18       1.0  0.05515  0.89932  0.50343  1.0000
  C   C19       1.0  0.11089  0.79900  0.50194  1.0000
  C   C20       1.0  0.27651  0.90074  0.50279  1.0000
  C   C21       1.0  0.55454  0.00030  0.50609  1.0000
  C   C22       1.0  0.38816  0.09897  0.50649  1.0000
  C   C23       1.0  0.44389  0.00030  0.50609  1.0000
  C   C24       1.0  0.61027  0.09898  0.50649  1.0000
  C   C25       1.0  0.55542  0.19700  0.50531  1.0000
  C   C26       1.0  0.44300  0.19699  0.50531  1.0000
  C   C27       1.0  0.55559  0.80407  0.49731  1.0000
  C   C28       1.0  0.38823  0.90194  0.50292  1.0000
  C   C29       1.0  0.44283  0.80407  0.49731  1.0000
  C   C30       1.0  0.61019  0.90194  0.50293  1.0000
  C   C31       1.0  0.88888  0.99994  0.50423  1.0000
  C   C32       1.0  0.72174  0.09943  0.50531  1.0000
  C   C33       1.0  0.77731  0.99991  0.50451  1.0000
  C   C34       1.0  0.94317  0.10069  0.50462  1.0000
  C   C35       1.0  0.88717  0.20085  0.50429  1.0000
  C   C36       1.0  0.71479  0.29839  0.50184  1.0000
  C   C37       1.0  0.77445  0.20010  0.50417  1.0000
  C   C38       1.0  0.94281  0.30051  0.50355  1.0000
  C   C39       1.0  0.88534  0.39959  0.50174  1.0000
  C   C40       1.0  0.71619  0.49855  0.49363  1.0000
  C   C41       1.0  0.77213  0.39852  0.49995  1.0000
  C   C42       1.0  0.94230  0.49980  0.50061  1.0000
  C   C43       1.0  0.88507  0.59989  0.49928  1.0000
  C   C44       1.0  0.71587  0.70184  0.49541  1.0000
  C   C45       1.0  0.77174  0.60071  0.49552  1.0000
  C   C46       1.0  0.94278  0.69892  0.50092  1.0000
  C   C47       1.0  0.88754  0.79900  0.50194  1.0000
  C   C48       1.0  0.72192  0.90074  0.50280  1.0000
  C   C49       1.0  0.77515  0.79991  0.50060  1.0000
  C   C50       1.0  0.94328  0.89932  0.50343  1.0000
  N   N1        1.0  0.39316  0.29515  0.50148  1.0000
  N   N2        1.0  0.60526  0.29516  0.50148  1.0000
  N   N3        1.0  0.38631  0.49824  0.48439  1.0000
  N   N4        1.0  0.61213  0.49825  0.48445  1.0000
  N   N5        1.0  0.39160  0.70714  0.49024  1.0000
  N   N6        1.0  0.60684  0.70715  0.49023  1.0000
  Fe  Fe1       1.0  0.49922  0.40494  0.49068  1.0000
  Ti  Ti1       1.0  0.49922  0.58882  0.46166  1.0000
