data_image0
_chemical_formula_structural       C54N4CuFe
_chemical_formula_sum              "C54 N4 Cu1 Fe1"
_cell_length_a       12.9027
_cell_length_b       12.3587
_cell_length_c       19.9272
_cell_angle_alpha    91.0776
_cell_angle_beta     90.0974
_cell_angle_gamma    90.5676

_space_group_name_H-M_alt    "P 1"
_space_group_IT_number       1

loop_
  _space_group_symop_operation_xyz
  'x, y, z'

loop_
  _atom_site_type_symbol
  _atom_site_label
  _atom_site_symmetry_multiplicity
  _atom_site_fract_x
  _atom_site_fract_y
  _atom_site_fract_z
  _atom_site_occupancy
  C   C1        1.0  0.22084  0.00290  0.49570  1.0000
  C   C2        1.0  0.05545  0.10196  0.49273  1.0000
  C   C3        1.0  0.10991  0.00203  0.49353  1.0000
  C   C4        1.0  0.27750  0.10326  0.49678  1.0000
  C   C5        1.0  0.22381  0.20519  0.49781  1.0000
  C   C6        1.0  0.05568  0.30151  0.49404  1.0000
  C   C7        1.0  0.11204  0.20257  0.49468  1.0000
  C   C8        1.0  0.28032  0.30657  0.50296  1.0000
  C   C9        1.0  0.22095  0.40740  0.50457  1.0000
  C   C10       1.0  0.05385  0.50165  0.49652  1.0000
  C   C11       1.0  0.11023  0.40251  0.49730  1.0000
  C   C12       1.0  0.21808  0.60126  0.50764  1.0000
  C   C13       1.0  0.05301  0.70195  0.49504  1.0000
  C   C14       1.0  0.10854  0.60263  0.49887  1.0000
  C   C15       1.0  0.27381  0.70426  0.50846  1.0000
  C   C16       1.0  0.21871  0.80236  0.49949  1.0000
  C   C17       1.0  0.05366  0.90181  0.49269  1.0000
  C   C18       1.0  0.10827  0.80208  0.49502  1.0000
  C   C19       1.0  0.27521  0.90260  0.49839  1.0000
  C   C20       1.0  0.55403  0.99787  0.49748  1.0000
  C   C21       1.0  0.38835  0.10097  0.49721  1.0000
  C   C22       1.0  0.44315  0.00044  0.49743  1.0000
  C   C23       1.0  0.61063  0.09806  0.49613  1.0000
  C   C24       1.0  0.55609  0.19850  0.49840  1.0000
  C   C25       1.0  0.39372  0.30265  0.50542  1.0000
  C   C26       1.0  0.44539  0.20033  0.49943  1.0000
  C   C27       1.0  0.61253  0.29854  0.49975  1.0000
  C   C28       1.0  0.55629  0.39696  0.50804  1.0000
  C   C29       1.0  0.61366  0.49887  0.50861  1.0000
  C   C30       1.0  0.61149  0.69495  0.50692  1.0000
  C   C31       1.0  0.55129  0.79510  0.50521  1.0000
  C   C32       1.0  0.38603  0.90135  0.49981  1.0000
  C   C33       1.0  0.43797  0.80019  0.50733  1.0000
  C   C34       1.0  0.60791  0.89634  0.49908  1.0000
  C   C35       1.0  0.88740  0.00013  0.49156  1.0000
  C   C36       1.0  0.72146  0.09874  0.49403  1.0000
  C   C37       1.0  0.77604  0.99884  0.49312  1.0000
  C   C38       1.0  0.94404  0.10050  0.49151  1.0000
  C   C39       1.0  0.88866  0.19993  0.49184  1.0000
  C   C40       1.0  0.72297  0.29864  0.49555  1.0000
  C   C41       1.0  0.77776  0.19888  0.49314  1.0000
  C   C42       1.0  0.94460  0.30031  0.49243  1.0000
  C   C43       1.0  0.88883  0.39979  0.49326  1.0000
  C   C44       1.0  0.72274  0.49809  0.49939  1.0000
  C   C45       1.0  0.77834  0.39862  0.49521  1.0000
  C   C46       1.0  0.94359  0.50050  0.49415  1.0000
  C   C47       1.0  0.88772  0.60003  0.49439  1.0000
  C   C48       1.0  0.72159  0.69861  0.49829  1.0000
  C   C49       1.0  0.77756  0.59906  0.49730  1.0000
  C   C50       1.0  0.94248  0.70078  0.49334  1.0000
  C   C51       1.0  0.88688  0.80031  0.49249  1.0000
  C   C52       1.0  0.71945  0.89837  0.49540  1.0000
  C   C53       1.0  0.77592  0.79938  0.49447  1.0000
  C   C54       1.0  0.94275  0.90069  0.49168  1.0000
  N   N1        1.0  0.26995  0.50569  0.51429  1.0000
  N   N2        1.0  0.45082  0.39607  0.51455  1.0000
  N   N3        1.0  0.56387  0.59628  0.51849  1.0000
  N   N4        1.0  0.37935  0.70809  0.51837  1.0000
  Cu  Cu1       1.0  0.37184  0.47360  0.59140  1.0000
  Fe  Fe1       1.0  0.46056  0.63418  0.58580  1.0000
