data_image0
_chemical_formula_structural       C54N4NiFe
_chemical_formula_sum              "C54 N4 Ni1 Fe1"
_cell_length_a       12.8927
_cell_length_b       12.3576
_cell_length_c       19.9443
_cell_angle_alpha    91.083
_cell_angle_beta     90.0566
_cell_angle_gamma    90.4878

_space_group_name_H-M_alt    "P 1"
_space_group_IT_number       1

loop_
  _space_group_symop_operation_xyz
  'x, y, z'

loop_
  _atom_site_type_symbol
  _atom_site_label
  _atom_site_symmetry_multiplicity
  _atom_site_fract_x
  _atom_site_fract_y
  _atom_site_fract_z
  _atom_site_occupancy
  C   C1        1.0  0.22083  0.00253  0.49558  1.0000
  C   C2        1.0  0.05534  0.10168  0.49330  1.0000
  C   C3        1.0  0.10987  0.00175  0.49391  1.0000
  C   C4        1.0  0.27735  0.10280  0.49672  1.0000
  C   C5        1.0  0.22340  0.20450  0.49857  1.0000
  C   C6        1.0  0.05552  0.30130  0.49432  1.0000
  C   C7        1.0  0.11184  0.20216  0.49529  1.0000
  C   C8        1.0  0.27981  0.30572  0.50443  1.0000
  C   C9        1.0  0.22045  0.40636  0.50581  1.0000
  C   C10       1.0  0.05400  0.50162  0.49641  1.0000
  C   C11       1.0  0.11006  0.40216  0.49752  1.0000
  C   C12       1.0  0.21854  0.60158  0.50857  1.0000
  C   C13       1.0  0.05336  0.70179  0.49471  1.0000
  C   C14       1.0  0.10913  0.60247  0.49866  1.0000
  C   C15       1.0  0.27485  0.70400  0.50890  1.0000
  C   C16       1.0  0.21917  0.80196  0.49942  1.0000
  C   C17       1.0  0.05377  0.90159  0.49299  1.0000
  C   C18       1.0  0.10863  0.80176  0.49503  1.0000
  C   C19       1.0  0.27543  0.90224  0.49789  1.0000
  C   C20       1.0  0.55423  0.99819  0.49682  1.0000
  C   C21       1.0  0.38828  0.10063  0.49651  1.0000
  C   C22       1.0  0.44323  0.00022  0.49653  1.0000
  C   C23       1.0  0.61072  0.09840  0.49561  1.0000
  C   C24       1.0  0.55605  0.19883  0.49780  1.0000
  C   C25       1.0  0.39317  0.30159  0.50612  1.0000
  C   C26       1.0  0.44528  0.19996  0.49886  1.0000
  C   C27       1.0  0.61228  0.29910  0.49941  1.0000
  C   C28       1.0  0.55634  0.39774  0.50875  1.0000
  C   C29       1.0  0.61295  0.50001  0.50907  1.0000
  C   C30       1.0  0.61118  0.69538  0.50622  1.0000
  C   C31       1.0  0.55171  0.79571  0.50503  1.0000
  C   C32       1.0  0.38627  0.90103  0.49891  1.0000
  C   C33       1.0  0.43850  0.79994  0.50655  1.0000
  C   C34       1.0  0.60821  0.89684  0.49880  1.0000
  C   C35       1.0  0.88750  0.00026  0.49203  1.0000
  C   C36       1.0  0.72157  0.09909  0.49403  1.0000
  C   C37       1.0  0.77617  0.99914  0.49330  1.0000
  C   C38       1.0  0.94400  0.10048  0.49207  1.0000
  C   C39       1.0  0.88858  0.20006  0.49219  1.0000
  C   C40       1.0  0.72281  0.29912  0.49537  1.0000
  C   C41       1.0  0.77770  0.19921  0.49325  1.0000
  C   C42       1.0  0.94444  0.30041  0.49259  1.0000
  C   C43       1.0  0.88873  0.40004  0.49322  1.0000
  C   C44       1.0  0.72225  0.49863  0.49931  1.0000
  C   C45       1.0  0.77804  0.39908  0.49518  1.0000
  C   C46       1.0  0.94372  0.50058  0.49390  1.0000
  C   C47       1.0  0.88767  0.60019  0.49391  1.0000
  C   C48       1.0  0.72140  0.69889  0.49754  1.0000
  C   C49       1.0  0.77745  0.59932  0.49673  1.0000
  C   C50       1.0  0.94267  0.70070  0.49295  1.0000
  C   C51       1.0  0.88700  0.80033  0.49238  1.0000
  C   C52       1.0  0.71964  0.89878  0.49529  1.0000
  C   C53       1.0  0.77597  0.79953  0.49420  1.0000
  C   C54       1.0  0.94288  0.90066  0.49201  1.0000
  N   N1        1.0  0.26859  0.50475  0.51680  1.0000
  N   N2        1.0  0.45065  0.39424  0.51656  1.0000
  N   N3        1.0  0.56302  0.59782  0.51866  1.0000
  N   N4        1.0  0.38071  0.70812  0.51827  1.0000
  Ni  Ni1       1.0  0.37508  0.47790  0.58364  1.0000
  Fe  Fe1       1.0  0.45753  0.63086  0.58949  1.0000
