data_image0
_chemical_formula_structural       C50N6CoFe
_chemical_formula_sum              "C50 N6 Co1 Fe1"
_cell_length_a       12.6535
_cell_length_b       12.538
_cell_length_c       20.0247
_cell_angle_alpha    89.9954
_cell_angle_beta     90.0381
_cell_angle_gamma    89.8324

_space_group_name_H-M_alt    "P 1"
_space_group_IT_number       1

loop_
  _space_group_symop_operation_xyz
  'x, y, z'

loop_
  _atom_site_type_symbol
  _atom_site_label
  _atom_site_symmetry_multiplicity
  _atom_site_fract_x
  _atom_site_fract_y
  _atom_site_fract_z
  _atom_site_occupancy
  C   C1        1.0  0.22162  0.99869  0.49997  1.0000
  C   C2        1.0  0.05514  0.09971  0.49997  1.0000
  C   C3        1.0  0.11011  0.99957  0.49998  1.0000
  C   C4        1.0  0.27720  0.09642  0.49998  1.0000
  C   C5        1.0  0.22277  0.19530  0.50003  1.0000
  C   C6        1.0  0.05800  0.30037  0.50000  1.0000
  C   C7        1.0  0.11089  0.19874  0.49998  1.0000
  C   C8        1.0  0.28120  0.29174  0.50021  1.0000
  C   C9        1.0  0.06447  0.49791  0.50003  1.0000
  C   C10       1.0  0.12079  0.39662  0.50008  1.0000
  C   C11       1.0  0.05853  0.69872  0.50000  1.0000
  C   C12       1.0  0.11946  0.60057  0.50003  1.0000
  C   C13       1.0  0.27794  0.70335  0.50003  1.0000
  C   C14       1.0  0.22289  0.80154  0.50000  1.0000
  C   C15       1.0  0.05569  0.89951  0.50001  1.0000
  C   C16       1.0  0.11113  0.79991  0.50001  1.0000
  C   C17       1.0  0.27761  0.90025  0.49998  1.0000
  C   C18       1.0  0.55619  0.99863  0.49993  1.0000
  C   C19       1.0  0.38903  0.09630  0.50000  1.0000
  C   C20       1.0  0.44495  0.99817  0.49993  1.0000
  C   C21       1.0  0.61088  0.09735  0.49997  1.0000
  C   C22       1.0  0.55568  0.19541  0.50010  1.0000
  C   C23       1.0  0.44299  0.19434  0.50015  1.0000
  C   C24       1.0  0.55215  0.60757  0.50013  1.0000
  C   C25       1.0  0.39061  0.70405  0.50004  1.0000
  C   C26       1.0  0.61074  0.70388  0.49998  1.0000
  C   C27       1.0  0.55638  0.80255  0.49994  1.0000
  C   C28       1.0  0.38882  0.90045  0.49995  1.0000
  C   C29       1.0  0.44461  0.80219  0.49997  1.0000
  C   C30       1.0  0.61214  0.90025  0.49993  1.0000
  C   C31       1.0  0.88935  0.99992  0.50000  1.0000
  C   C32       1.0  0.72265  0.09930  0.49997  1.0000
  C   C33       1.0  0.77803  0.99970  0.49998  1.0000
  C   C34       1.0  0.94313  0.10056  0.49997  1.0000
  C   C35       1.0  0.88813  0.20138  0.49997  1.0000
  C   C36       1.0  0.71436  0.29857  0.50010  1.0000
  C   C37       1.0  0.77536  0.20058  0.49999  1.0000
  C   C38       1.0  0.94396  0.30161  0.49998  1.0000
  C   C39       1.0  0.88595  0.40089  0.50001  1.0000
  C   C40       1.0  0.71368  0.50283  0.50015  1.0000
  C   C41       1.0  0.76946  0.40128  0.50010  1.0000
  C   C42       1.0  0.94802  0.49832  0.49999  1.0000
  C   C43       1.0  0.89012  0.59771  0.49997  1.0000
  C   C44       1.0  0.72276  0.70043  0.49997  1.0000
  C   C45       1.0  0.77617  0.59901  0.50000  1.0000
  C   C46       1.0  0.94578  0.69795  0.49997  1.0000
  C   C47       1.0  0.89059  0.79864  0.49999  1.0000
  C   C48       1.0  0.72359  0.89959  0.49996  1.0000
  C   C49       1.0  0.77855  0.79943  0.49997  1.0000
  C   C50       1.0  0.94435  0.89929  0.50001  1.0000
  N   N1        1.0  0.23241  0.38958  0.50022  1.0000
  N   N2        1.0  0.22806  0.60626  0.50006  1.0000
  N   N3        1.0  0.38996  0.29102  0.50036  1.0000
  N   N4        1.0  0.60564  0.29250  0.50021  1.0000
  N   N5        1.0  0.60245  0.51043  0.50032  1.0000
  N   N6        1.0  0.44309  0.60700  0.50015  1.0000
  Co  Co1       1.0  0.34044  0.49562  0.50026  1.0000
  Fe  Fe1       1.0  0.48967  0.40614  0.50055  1.0000
