data_image0
_chemical_formula_structural       C50N6FeCr
_chemical_formula_sum              "C50 N6 Fe1 Cr1"
_cell_length_a       12.6979
_cell_length_b       12.5615
_cell_length_c       19.9177
_cell_angle_alpha    89.9981
_cell_angle_beta     90.0397
_cell_angle_gamma    89.6418

_space_group_name_H-M_alt    "P 1"
_space_group_IT_number       1

loop_
  _space_group_symop_operation_xyz
  'x, y, z'

loop_
  _atom_site_type_symbol
  _atom_site_label
  _atom_site_symmetry_multiplicity
  _atom_site_fract_x
  _atom_site_fract_y
  _atom_site_fract_z
  _atom_site_occupancy
  C   C1        1.0  0.22149  0.99874  0.50118  1.0000
  C   C2        1.0  0.05474  0.09925  0.50040  1.0000
  C   C3        1.0  0.11005  0.99946  0.50089  1.0000
  C   C4        1.0  0.27693  0.09603  0.50126  1.0000
  C   C5        1.0  0.22146  0.19428  0.50100  1.0000
  C   C6        1.0  0.05666  0.29964  0.50017  1.0000
  C   C7        1.0  0.10991  0.19808  0.50035  1.0000
  C   C8        1.0  0.27896  0.29041  0.50089  1.0000
  C   C9        1.0  0.06389  0.49814  0.49955  1.0000
  C   C10       1.0  0.11840  0.39584  0.49941  1.0000
  C   C11       1.0  0.05814  0.69964  0.50084  1.0000
  C   C12       1.0  0.11811  0.60147  0.49949  1.0000
  C   C13       1.0  0.27801  0.70466  0.49898  1.0000
  C   C14       1.0  0.22302  0.80244  0.50074  1.0000
  C   C15       1.0  0.05569  0.89966  0.50089  1.0000
  C   C16       1.0  0.11123  0.80040  0.50097  1.0000
  C   C17       1.0  0.27774  0.90057  0.50091  1.0000
  C   C18       1.0  0.55599  0.99858  0.49975  1.0000
  C   C19       1.0  0.38887  0.09584  0.50111  1.0000
  C   C20       1.0  0.44489  0.99789  0.50029  1.0000
  C   C21       1.0  0.61065  0.09701  0.50067  1.0000
  C   C22       1.0  0.55563  0.19494  0.50251  1.0000
  C   C23       1.0  0.44238  0.19389  0.50201  1.0000
  C   C24       1.0  0.55413  0.60786  0.49746  1.0000
  C   C25       1.0  0.39096  0.70390  0.49786  1.0000
  C   C26       1.0  0.61163  0.70441  0.49837  1.0000
  C   C27       1.0  0.55661  0.80281  0.49837  1.0000
  C   C28       1.0  0.38883  0.90031  0.50003  1.0000
  C   C29       1.0  0.44471  0.80204  0.49870  1.0000
  C   C30       1.0  0.61208  0.90025  0.49898  1.0000
  C   C31       1.0  0.88919  0.99983  0.50004  1.0000
  C   C32       1.0  0.72254  0.09908  0.50037  1.0000
  C   C33       1.0  0.77786  0.99966  0.49979  1.0000
  C   C34       1.0  0.94297  0.10008  0.50009  1.0000
  C   C35       1.0  0.88820  0.20077  0.50025  1.0000
  C   C36       1.0  0.71638  0.29826  0.50229  1.0000
  C   C37       1.0  0.77591  0.19990  0.50075  1.0000
  C   C38       1.0  0.94343  0.30108  0.50048  1.0000
  C   C39       1.0  0.88654  0.40092  0.50080  1.0000
  C   C40       1.0  0.71669  0.50402  0.50034  1.0000
  C   C41       1.0  0.77081  0.40145  0.50145  1.0000
  C   C42       1.0  0.94803  0.49861  0.50035  1.0000
  C   C43       1.0  0.89106  0.59848  0.50050  1.0000
  C   C44       1.0  0.72354  0.70098  0.49945  1.0000
  C   C45       1.0  0.77789  0.60001  0.50001  1.0000
  C   C46       1.0  0.94591  0.69874  0.50079  1.0000
  C   C47       1.0  0.89064  0.79918  0.50044  1.0000
  C   C48       1.0  0.72353  0.89972  0.49937  1.0000
  C   C49       1.0  0.77878  0.79991  0.49972  1.0000
  C   C50       1.0  0.94436  0.89947  0.50045  1.0000
  N   N1        1.0  0.22885  0.38748  0.49831  1.0000
  N   N2        1.0  0.22603  0.60872  0.49710  1.0000
  N   N3        1.0  0.38705  0.28941  0.50288  1.0000
  N   N4        1.0  0.60830  0.29133  0.50469  1.0000
  N   N5        1.0  0.60686  0.51251  0.49954  1.0000
  N   N6        1.0  0.44445  0.60645  0.49546  1.0000
  Fe  Fe1       1.0  0.33041  0.49889  0.48573  1.0000
  Cr  Cr1       1.0  0.49824  0.40225  0.50700  1.0000
