data_image0
_chemical_formula_structural       C50N6CuFe
_chemical_formula_sum              "C50 N6 Cu1 Fe1"
_cell_length_a       12.6819
_cell_length_b       12.5385
_cell_length_c       19.9789
_cell_angle_alpha    89.9977
_cell_angle_beta     90.0297
_cell_angle_gamma    89.9523

_space_group_name_H-M_alt    "P 1"
_space_group_IT_number       1

loop_
  _space_group_symop_operation_xyz
  'x, y, z'

loop_
  _atom_site_type_symbol
  _atom_site_label
  _atom_site_symmetry_multiplicity
  _atom_site_fract_x
  _atom_site_fract_y
  _atom_site_fract_z
  _atom_site_occupancy
  C   C1        1.0  0.22150  0.99907  0.49997  1.0000
  C   C2        1.0  0.05520  0.10007  0.49996  1.0000
  C   C3        1.0  0.11003  0.00000  0.49997  1.0000
  C   C4        1.0  0.27735  0.09645  0.50000  1.0000
  C   C5        1.0  0.22326  0.19548  0.50001  1.0000
  C   C6        1.0  0.05800  0.30046  0.49997  1.0000
  C   C7        1.0  0.11131  0.19910  0.49995  1.0000
  C   C8        1.0  0.28196  0.29204  0.50023  1.0000
  C   C9        1.0  0.06398  0.49833  0.50001  1.0000
  C   C10       1.0  0.12069  0.39690  0.50006  1.0000
  C   C11       1.0  0.05697  0.70009  0.49997  1.0000
  C   C12       1.0  0.11714  0.60217  0.50001  1.0000
  C   C13       1.0  0.27684  0.70385  0.49998  1.0000
  C   C14       1.0  0.22242  0.80238  0.49997  1.0000
  C   C15       1.0  0.05536  0.90013  0.50000  1.0000
  C   C16       1.0  0.11065  0.80067  0.50000  1.0000
  C   C17       1.0  0.27742  0.90055  0.49996  1.0000
  C   C18       1.0  0.55591  0.99811  0.50000  1.0000
  C   C19       1.0  0.38908  0.09569  0.50004  1.0000
  C   C20       1.0  0.44484  0.99754  0.49997  1.0000
  C   C21       1.0  0.61081  0.09683  0.50002  1.0000
  C   C22       1.0  0.55543  0.19438  0.49999  1.0000
  C   C23       1.0  0.44323  0.19363  0.50022  1.0000
  C   C24       1.0  0.55317  0.60627  0.50025  1.0000
  C   C25       1.0  0.39002  0.70278  0.49995  1.0000
  C   C26       1.0  0.61095  0.70316  0.50010  1.0000
  C   C27       1.0  0.55613  0.80181  0.49997  1.0000
  C   C28       1.0  0.38857  0.89974  0.49994  1.0000
  C   C29       1.0  0.44418  0.80112  0.49995  1.0000
  C   C30       1.0  0.61171  0.89966  0.49996  1.0000
  C   C31       1.0  0.88918  0.00015  0.50001  1.0000
  C   C32       1.0  0.72257  0.09905  0.50000  1.0000
  C   C33       1.0  0.77780  0.99964  0.49999  1.0000
  C   C34       1.0  0.94318  0.10077  0.50001  1.0000
  C   C35       1.0  0.88809  0.20138  0.50005  1.0000
  C   C36       1.0  0.71492  0.29875  0.50003  1.0000
  C   C37       1.0  0.77527  0.20041  0.50009  1.0000
  C   C38       1.0  0.94408  0.30158  0.49999  1.0000
  C   C39       1.0  0.88639  0.40085  0.50001  1.0000
  C   C40       1.0  0.71518  0.50272  0.50025  1.0000
  C   C41       1.0  0.77016  0.40116  0.50009  1.0000
  C   C42       1.0  0.94787  0.49849  0.49996  1.0000
  C   C43       1.0  0.89012  0.59808  0.49991  1.0000
  C   C44       1.0  0.72286  0.70028  0.50004  1.0000
  C   C45       1.0  0.77668  0.59920  0.50002  1.0000
  C   C46       1.0  0.94487  0.69884  0.49992  1.0000
  C   C47       1.0  0.88996  0.79925  0.49995  1.0000
  C   C48       1.0  0.72317  0.89946  0.49997  1.0000
  C   C49       1.0  0.77814  0.79961  0.49996  1.0000
  C   C50       1.0  0.94407  0.89976  0.50000  1.0000
  N   N1        1.0  0.23180  0.38845  0.50031  1.0000
  N   N2        1.0  0.22406  0.60885  0.50008  1.0000
  N   N3        1.0  0.39115  0.29076  0.50054  1.0000
  N   N4        1.0  0.60585  0.29239  0.49963  1.0000
  N   N5        1.0  0.60431  0.50967  0.50069  1.0000
  N   N6        1.0  0.44434  0.60549  0.50004  1.0000
  Cu  Cu1       1.0  0.33587  0.50088  0.50047  1.0000
  Fe  Fe1       1.0  0.50025  0.40125  0.50009  1.0000
