data_image0
_chemical_formula_structural       C50N6Fe2
_chemical_formula_sum              "C50 N6 Fe2"
_cell_length_a       12.672
_cell_length_b       12.5509
_cell_length_c       19.9748
_cell_angle_alpha    89.9968
_cell_angle_beta     90.0465
_cell_angle_gamma    89.8012

_space_group_name_H-M_alt    "P 1"
_space_group_IT_number       1

loop_
  _space_group_symop_operation_xyz
  'x, y, z'

loop_
  _atom_site_type_symbol
  _atom_site_label
  _atom_site_symmetry_multiplicity
  _atom_site_fract_x
  _atom_site_fract_y
  _atom_site_fract_z
  _atom_site_occupancy
  C   C1        1.0  0.22145  0.99881  0.50058  1.0000
  C   C2        1.0  0.05513  0.09961  0.50007  1.0000
  C   C3        1.0  0.11000  0.99953  0.50045  1.0000
  C   C4        1.0  0.27721  0.09623  0.50051  1.0000
  C   C5        1.0  0.22269  0.19493  0.50032  1.0000
  C   C6        1.0  0.05752  0.30005  0.49977  1.0000
  C   C7        1.0  0.11075  0.19850  0.50000  1.0000
  C   C8        1.0  0.28112  0.29096  0.50040  1.0000
  C   C9        1.0  0.06427  0.49790  0.49960  1.0000
  C   C10       1.0  0.11997  0.39619  0.49968  1.0000
  C   C11       1.0  0.05825  0.69901  0.50006  1.0000
  C   C12       1.0  0.11906  0.60092  0.49957  1.0000
  C   C13       1.0  0.27783  0.70428  0.49965  1.0000
  C   C14       1.0  0.22271  0.80215  0.50027  1.0000
  C   C15       1.0  0.05557  0.89960  0.50043  1.0000
  C   C16       1.0  0.11095  0.80015  0.50034  1.0000
  C   C17       1.0  0.27750  0.90060  0.50048  1.0000
  C   C18       1.0  0.55618  0.99856  0.49954  1.0000
  C   C19       1.0  0.38904  0.09621  0.50037  1.0000
  C   C20       1.0  0.44496  0.99829  0.49998  1.0000
  C   C21       1.0  0.61096  0.09701  0.49973  1.0000
  C   C22       1.0  0.55583  0.19488  0.50047  1.0000
  C   C23       1.0  0.44307  0.19399  0.50061  1.0000
  C   C24       1.0  0.55253  0.60820  0.49990  1.0000
  C   C25       1.0  0.39059  0.70518  0.49961  1.0000
  C   C26       1.0  0.61097  0.70423  0.49985  1.0000
  C   C27       1.0  0.55646  0.80293  0.49961  1.0000
  C   C28       1.0  0.38871  0.90088  0.50009  1.0000
  C   C29       1.0  0.44464  0.80296  0.49977  1.0000
  C   C30       1.0  0.61222  0.90035  0.49943  1.0000
  C   C31       1.0  0.88940  0.99987  0.49974  1.0000
  C   C32       1.0  0.72271  0.09900  0.49958  1.0000
  C   C33       1.0  0.77810  0.99955  0.49944  1.0000
  C   C34       1.0  0.94316  0.10039  0.49979  1.0000
  C   C35       1.0  0.88809  0.20106  0.49977  1.0000
  C   C36       1.0  0.71461  0.29823  0.50051  1.0000
  C   C37       1.0  0.77542  0.20015  0.49989  1.0000
  C   C38       1.0  0.94361  0.30136  0.49985  1.0000
  C   C39       1.0  0.88586  0.40082  0.50012  1.0000
  C   C40       1.0  0.71368  0.50296  0.50053  1.0000
  C   C41       1.0  0.76938  0.40125  0.50053  1.0000
  C   C42       1.0  0.94780  0.49833  0.49996  1.0000
  C   C43       1.0  0.89004  0.59778  0.50018  1.0000
  C   C44       1.0  0.72292  0.70065  0.50008  1.0000
  C   C45       1.0  0.77614  0.59910  0.50033  1.0000
  C   C46       1.0  0.94557  0.69808  0.50017  1.0000
  C   C47       1.0  0.89051  0.79876  0.50010  1.0000
  C   C48       1.0  0.72367  0.89962  0.49949  1.0000
  C   C49       1.0  0.77854  0.79954  0.49988  1.0000
  C   C50       1.0  0.94427  0.89929  0.50010  1.0000
  N   N1        1.0  0.23145  0.38847  0.49991  1.0000
  N   N2        1.0  0.22761  0.60734  0.49918  1.0000
  N   N3        1.0  0.39011  0.29065  0.50094  1.0000
  N   N4        1.0  0.60605  0.29182  0.50098  1.0000
  N   N5        1.0  0.60221  0.51068  0.50044  1.0000
  N   N6        1.0  0.44355  0.60851  0.49941  1.0000
  Fe  Fe1       1.0  0.34112  0.49510  0.49927  1.0000
  Fe  Fe2       1.0  0.49254  0.40407  0.50116  1.0000
