data_image0
_chemical_formula_structural       C50N6FeMn
_chemical_formula_sum              "C50 N6 Fe1 Mn1"
_cell_length_a       12.6697
_cell_length_b       12.5405
_cell_length_c       19.9954
_cell_angle_alpha    90.0416
_cell_angle_beta     90.0937
_cell_angle_gamma    89.6718

_space_group_name_H-M_alt    "P 1"
_space_group_IT_number       1

loop_
  _space_group_symop_operation_xyz
  'x, y, z'

loop_
  _atom_site_type_symbol
  _atom_site_label
  _atom_site_symmetry_multiplicity
  _atom_site_fract_x
  _atom_site_fract_y
  _atom_site_fract_z
  _atom_site_occupancy
  C   C1        1.0  0.22155  0.99849  0.50096  1.0000
  C   C2        1.0  0.05469  0.09930  0.50022  1.0000
  C   C3        1.0  0.10997  0.99923  0.50083  1.0000
  C   C4        1.0  0.27694  0.09597  0.50077  1.0000
  C   C5        1.0  0.22197  0.19469  0.50041  1.0000
  C   C6        1.0  0.05704  0.29966  0.49989  1.0000
  C   C7        1.0  0.11017  0.19816  0.49988  1.0000
  C   C8        1.0  0.27986  0.29087  0.50046  1.0000
  C   C9        1.0  0.06444  0.49766  0.49968  1.0000
  C   C10       1.0  0.11924  0.39572  0.49897  1.0000
  C   C11       1.0  0.05939  0.69839  0.50075  1.0000
  C   C12       1.0  0.12016  0.59989  0.50027  1.0000
  C   C13       1.0  0.27892  0.70340  0.49993  1.0000
  C   C14       1.0  0.22340  0.80134  0.50115  1.0000
  C   C15       1.0  0.05588  0.89923  0.50100  1.0000
  C   C16       1.0  0.11160  0.79962  0.50126  1.0000
  C   C17       1.0  0.27781  0.90005  0.50089  1.0000
  C   C18       1.0  0.55603  0.99901  0.49868  1.0000
  C   C19       1.0  0.38875  0.09615  0.50012  1.0000
  C   C20       1.0  0.44487  0.99824  0.49940  1.0000
  C   C21       1.0  0.61045  0.09773  0.49890  1.0000
  C   C22       1.0  0.55493  0.19579  0.50022  1.0000
  C   C23       1.0  0.44241  0.19422  0.50110  1.0000
  C   C24       1.0  0.55317  0.60828  0.49795  1.0000
  C   C25       1.0  0.39135  0.70439  0.49768  1.0000
  C   C26       1.0  0.61142  0.70449  0.49815  1.0000
  C   C27       1.0  0.55677  0.80311  0.49798  1.0000
  C   C28       1.0  0.38893  0.90054  0.49988  1.0000
  C   C29       1.0  0.44502  0.80253  0.49865  1.0000
  C   C30       1.0  0.61230  0.90066  0.49849  1.0000
  C   C31       1.0  0.88923  0.99986  0.49990  1.0000
  C   C32       1.0  0.72222  0.09950  0.49919  1.0000
  C   C33       1.0  0.77784  0.99993  0.49927  1.0000
  C   C34       1.0  0.94268  0.10037  0.50000  1.0000
  C   C35       1.0  0.88749  0.20123  0.50010  1.0000
  C   C36       1.0  0.71403  0.29926  0.50101  1.0000
  C   C37       1.0  0.77470  0.20081  0.49998  1.0000
  C   C38       1.0  0.94331  0.30122  0.50037  1.0000
  C   C39       1.0  0.88612  0.40089  0.50071  1.0000
  C   C40       1.0  0.71503  0.50363  0.50152  1.0000
  C   C41       1.0  0.76972  0.40156  0.50140  1.0000
  C   C42       1.0  0.94811  0.49830  0.50032  1.0000
  C   C43       1.0  0.89080  0.59800  0.50035  1.0000
  C   C44       1.0  0.72339  0.70092  0.49959  1.0000
  C   C45       1.0  0.77710  0.59958  0.50035  1.0000
  C   C46       1.0  0.94650  0.69796  0.50043  1.0000
  C   C47       1.0  0.89105  0.79869  0.50026  1.0000
  C   C48       1.0  0.72372  0.89985  0.49901  1.0000
  C   C49       1.0  0.77897  0.79971  0.49963  1.0000
  C   C50       1.0  0.94447  0.89924  0.50040  1.0000
  N   N1        1.0  0.23023  0.38831  0.49669  1.0000
  N   N2        1.0  0.22947  0.60565  0.49988  1.0000
  N   N3        1.0  0.38844  0.29047  0.50356  1.0000
  N   N4        1.0  0.60488  0.29339  0.50185  1.0000
  N   N5        1.0  0.60445  0.51176  0.50284  1.0000
  N   N6        1.0  0.44423  0.60745  0.49477  1.0000
  Fe  Fe1       1.0  0.33783  0.49413  0.49066  1.0000
  Mn  Mn1       1.0  0.49083  0.40712  0.51392  1.0000
