data_image0
_chemical_formula_structural       C50N6NiFe
_chemical_formula_sum              "C50 N6 Ni1 Fe1"
_cell_length_a       12.6617
_cell_length_b       12.5378
_cell_length_c       20.0118
_cell_angle_alpha    89.9943
_cell_angle_beta     90.0331
_cell_angle_gamma    89.8995

_space_group_name_H-M_alt    "P 1"
_space_group_IT_number       1

loop_
  _space_group_symop_operation_xyz
  'x, y, z'

loop_
  _atom_site_type_symbol
  _atom_site_label
  _atom_site_symmetry_multiplicity
  _atom_site_fract_x
  _atom_site_fract_y
  _atom_site_fract_z
  _atom_site_occupancy
  C   C1        1.0  0.22176  0.99911  0.50000  1.0000
  C   C2        1.0  0.05521  0.09948  0.49997  1.0000
  C   C3        1.0  0.11020  0.99966  0.49996  1.0000
  C   C4        1.0  0.27719  0.09677  0.50007  1.0000
  C   C5        1.0  0.22216  0.19540  0.50008  1.0000
  C   C6        1.0  0.05758  0.30020  0.49998  1.0000
  C   C7        1.0  0.11055  0.19869  0.49999  1.0000
  C   C8        1.0  0.27956  0.29228  0.50018  1.0000
  C   C9        1.0  0.06413  0.49815  0.49998  1.0000
  C   C10       1.0  0.11979  0.39674  0.49996  1.0000
  C   C11       1.0  0.05814  0.69939  0.50003  1.0000
  C   C12       1.0  0.11857  0.60115  0.50005  1.0000
  C   C13       1.0  0.27759  0.70378  0.50013  1.0000
  C   C14       1.0  0.22284  0.80204  0.50008  1.0000
  C   C15       1.0  0.05571  0.89971  0.49997  1.0000
  C   C16       1.0  0.11106  0.80022  0.50003  1.0000
  C   C17       1.0  0.27764  0.90053  0.50002  1.0000
  C   C18       1.0  0.55615  0.99841  0.49990  1.0000
  C   C19       1.0  0.38926  0.09654  0.50004  1.0000
  C   C20       1.0  0.44494  0.99820  0.49995  1.0000
  C   C21       1.0  0.61098  0.09688  0.49990  1.0000
  C   C22       1.0  0.55623  0.19515  0.49999  1.0000
  C   C23       1.0  0.44313  0.19468  0.50016  1.0000
  C   C24       1.0  0.55243  0.60719  0.50012  1.0000
  C   C25       1.0  0.39049  0.70351  0.50008  1.0000
  C   C26       1.0  0.61079  0.70386  0.49996  1.0000
  C   C27       1.0  0.55632  0.80234  0.49991  1.0000
  C   C28       1.0  0.38879  0.90035  0.49998  1.0000
  C   C29       1.0  0.44440  0.80186  0.50000  1.0000
  C   C30       1.0  0.61203  0.89998  0.49989  1.0000
  C   C31       1.0  0.88943  0.99972  0.50000  1.0000
  C   C32       1.0  0.72287  0.09890  0.49993  1.0000
  C   C33       1.0  0.77804  0.99943  0.49997  1.0000
  C   C34       1.0  0.94341  0.10017  0.50000  1.0000
  C   C35       1.0  0.88877  0.20084  0.49999  1.0000
  C   C36       1.0  0.71647  0.29786  0.50000  1.0000
  C   C37       1.0  0.77643  0.19978  0.49994  1.0000
  C   C38       1.0  0.94400  0.30138  0.49999  1.0000
  C   C39       1.0  0.88658  0.40090  0.50000  1.0000
  C   C40       1.0  0.71528  0.50301  0.50020  1.0000
  C   C41       1.0  0.77052  0.40119  0.50007  1.0000
  C   C42       1.0  0.94807  0.49852  0.49997  1.0000
  C   C43       1.0  0.89051  0.59803  0.49994  1.0000
  C   C44       1.0  0.72283  0.70033  0.49998  1.0000
  C   C45       1.0  0.77697  0.59925  0.50001  1.0000
  C   C46       1.0  0.94565  0.69839  0.49995  1.0000
  C   C47       1.0  0.89045  0.79879  0.49995  1.0000
  C   C48       1.0  0.72346  0.89936  0.49993  1.0000
  C   C49       1.0  0.77843  0.79939  0.49994  1.0000
  C   C50       1.0  0.94435  0.89934  0.49997  1.0000
  N   N1        1.0  0.23065  0.38940  0.49995  1.0000
  N   N2        1.0  0.22637  0.60747  0.50010  1.0000
  N   N3        1.0  0.38806  0.29079  0.50051  1.0000
  N   N4        1.0  0.60872  0.29126  0.50005  1.0000
  N   N5        1.0  0.60471  0.51149  0.50051  1.0000
  N   N6        1.0  0.44322  0.60632  0.50000  1.0000
  Ni  Ni1       1.0  0.33227  0.49949  0.49979  1.0000
  Fe  Fe1       1.0  0.49414  0.40259  0.50149  1.0000
