data_image0
_chemical_formula_structural       C50N6FeSc
_chemical_formula_sum              "C50 N6 Fe1 Sc1"
_cell_length_a       12.7166
_cell_length_b       12.5153
_cell_length_c       19.9619
_cell_angle_alpha    90.0015
_cell_angle_beta     90.0086
_cell_angle_gamma    89.5837

_space_group_name_H-M_alt    "P 1"
_space_group_IT_number       1

loop_
  _space_group_symop_operation_xyz
  'x, y, z'

loop_
  _atom_site_type_symbol
  _atom_site_label
  _atom_site_symmetry_multiplicity
  _atom_site_fract_x
  _atom_site_fract_y
  _atom_site_fract_z
  _atom_site_occupancy
  C   C1        1.0  0.22175  0.99812  0.50125  1.0000
  C   C2        1.0  0.05427  0.09873  0.49973  1.0000
  C   C3        1.0  0.11022  0.99890  0.50050  1.0000
  C   C4        1.0  0.27703  0.09555  0.50165  1.0000
  C   C5        1.0  0.22096  0.19377  0.50095  1.0000
  C   C6        1.0  0.05617  0.29897  0.49923  1.0000
  C   C7        1.0  0.10952  0.19746  0.49959  1.0000
  C   C8        1.0  0.27778  0.29002  0.50153  1.0000
  C   C9        1.0  0.06392  0.49769  0.49758  1.0000
  C   C10       1.0  0.11747  0.39497  0.49774  1.0000
  C   C11       1.0  0.05945  0.69847  0.49924  1.0000
  C   C12       1.0  0.11942  0.60009  0.49791  1.0000
  C   C13       1.0  0.27937  0.70248  0.49943  1.0000
  C   C14       1.0  0.22383  0.80093  0.50098  1.0000
  C   C15       1.0  0.05612  0.89902  0.50021  1.0000
  C   C16       1.0  0.11212  0.79952  0.50038  1.0000
  C   C17       1.0  0.27822  0.89953  0.50127  1.0000
  C   C18       1.0  0.55584  0.99958  0.49973  1.0000
  C   C19       1.0  0.38884  0.09660  0.50183  1.0000
  C   C20       1.0  0.44491  0.99821  0.50052  1.0000
  C   C21       1.0  0.60991  0.09874  0.50137  1.0000
  C   C22       1.0  0.55456  0.19761  0.50483  1.0000
  C   C23       1.0  0.44206  0.19552  0.50410  1.0000
  C   C24       1.0  0.55564  0.60710  0.49411  1.0000
  C   C25       1.0  0.39153  0.70260  0.49807  1.0000
  C   C26       1.0  0.61214  0.70417  0.49557  1.0000
  C   C27       1.0  0.55688  0.80287  0.49714  1.0000
  C   C28       1.0  0.38919  0.89989  0.50040  1.0000
  C   C29       1.0  0.44518  0.80111  0.49884  1.0000
  C   C30       1.0  0.61205  0.90066  0.49812  1.0000
  C   C31       1.0  0.88891  0.99977  0.49930  1.0000
  C   C32       1.0  0.72167  0.09982  0.50074  1.0000
  C   C33       1.0  0.77740  0.00014  0.49929  1.0000
  C   C34       1.0  0.94242  0.10006  0.49945  1.0000
  C   C35       1.0  0.88712  0.20102  0.49982  1.0000
  C   C36       1.0  0.71490  0.29964  0.50381  1.0000
  C   C37       1.0  0.77463  0.20099  0.50119  1.0000
  C   C38       1.0  0.94296  0.30071  0.49974  1.0000
  C   C39       1.0  0.88679  0.40065  0.49965  1.0000
  C   C40       1.0  0.71799  0.50410  0.49801  1.0000
  C   C41       1.0  0.77114  0.40135  0.50098  1.0000
  C   C42       1.0  0.94832  0.49835  0.49831  1.0000
  C   C43       1.0  0.89180  0.59850  0.49792  1.0000
  C   C44       1.0  0.72405  0.70104  0.49642  1.0000
  C   C45       1.0  0.77868  0.60019  0.49691  1.0000
  C   C46       1.0  0.94693  0.69833  0.49860  1.0000
  C   C47       1.0  0.89115  0.79892  0.49862  1.0000
  C   C48       1.0  0.72345  0.90002  0.49818  1.0000
  C   C49       1.0  0.77921  0.80000  0.49763  1.0000
  C   C50       1.0  0.94463  0.89933  0.49934  1.0000
  N   N1        1.0  0.22752  0.38651  0.49623  1.0000
  N   N2        1.0  0.22836  0.60549  0.49703  1.0000
  N   N3        1.0  0.38585  0.29160  0.50697  1.0000
  N   N4        1.0  0.60581  0.29542  0.50943  1.0000
  N   N5        1.0  0.60847  0.51150  0.49689  1.0000
  N   N6        1.0  0.44536  0.60371  0.49364  1.0000
  Fe  Fe1       1.0  0.33456  0.49224  0.48402  1.0000
  Sc  Sc1       1.0  0.48989  0.41735  0.54061  1.0000
