data_image0
_chemical_formula_structural       C50N6FeTi
_chemical_formula_sum              "C50 N6 Fe1 Ti1"
_cell_length_a       12.6977
_cell_length_b       12.5247
_cell_length_c       19.9768
_cell_angle_alpha    90.016
_cell_angle_beta     90.1609
_cell_angle_gamma    89.5369

_space_group_name_H-M_alt    "P 1"
_space_group_IT_number       1

loop_
  _space_group_symop_operation_xyz
  'x, y, z'

loop_
  _atom_site_type_symbol
  _atom_site_label
  _atom_site_symmetry_multiplicity
  _atom_site_fract_x
  _atom_site_fract_y
  _atom_site_fract_z
  _atom_site_occupancy
  C   C1        1.0  0.22155  0.99781  0.50241  1.0000
  C   C2        1.0  0.05416  0.09880  0.50095  1.0000
  C   C3        1.0  0.11003  0.99881  0.50147  1.0000
  C   C4        1.0  0.27678  0.09518  0.50397  1.0000
  C   C5        1.0  0.22099  0.19346  0.50392  1.0000
  C   C6        1.0  0.05644  0.29909  0.50050  1.0000
  C   C7        1.0  0.10952  0.19745  0.50151  1.0000
  C   C8        1.0  0.27814  0.28958  0.50467  1.0000
  C   C9        1.0  0.06429  0.49733  0.49828  1.0000
  C   C10       1.0  0.11861  0.39508  0.49901  1.0000
  C   C11       1.0  0.05938  0.69856  0.49888  1.0000
  C   C12       1.0  0.11991  0.60005  0.49827  1.0000
  C   C13       1.0  0.27914  0.70176  0.49884  1.0000
  C   C14       1.0  0.22388  0.80060  0.50066  1.0000
  C   C15       1.0  0.05608  0.89902  0.50051  1.0000
  C   C16       1.0  0.11210  0.79935  0.50028  1.0000
  C   C17       1.0  0.27809  0.89923  0.50142  1.0000
  C   C18       1.0  0.55581  0.99950  0.49992  1.0000
  C   C19       1.0  0.38868  0.09596  0.50367  1.0000
  C   C20       1.0  0.44483  0.99783  0.50118  1.0000
  C   C21       1.0  0.60986  0.09868  0.50134  1.0000
  C   C22       1.0  0.55447  0.19747  0.50492  1.0000
  C   C23       1.0  0.44188  0.19439  0.50635  1.0000
  C   C24       1.0  0.55628  0.60800  0.49252  1.0000
  C   C25       1.0  0.39186  0.70266  0.49634  1.0000
  C   C26       1.0  0.61276  0.70484  0.49448  1.0000
  C   C27       1.0  0.55708  0.80307  0.49616  1.0000
  C   C28       1.0  0.38915  0.89970  0.50041  1.0000
  C   C29       1.0  0.44523  0.80121  0.49783  1.0000
  C   C30       1.0  0.61214  0.90083  0.49772  1.0000
  C   C31       1.0  0.88887  0.99987  0.49939  1.0000
  C   C32       1.0  0.72160  0.10000  0.50047  1.0000
  C   C33       1.0  0.77747  0.00023  0.49902  1.0000
  C   C34       1.0  0.94223  0.10026  0.50008  1.0000
  C   C35       1.0  0.88688  0.20123  0.50036  1.0000
  C   C36       1.0  0.71330  0.29988  0.50304  1.0000
  C   C37       1.0  0.77404  0.20123  0.50118  1.0000
  C   C38       1.0  0.94302  0.30087  0.50036  1.0000
  C   C39       1.0  0.88639  0.40076  0.49970  1.0000
  C   C40       1.0  0.71741  0.50406  0.49721  1.0000
  C   C41       1.0  0.77049  0.40161  0.50031  1.0000
  C   C42       1.0  0.94842  0.49819  0.49846  1.0000
  C   C43       1.0  0.89175  0.59831  0.49770  1.0000
  C   C44       1.0  0.72447  0.70129  0.49580  1.0000
  C   C45       1.0  0.77862  0.60008  0.49650  1.0000
  C   C46       1.0  0.94692  0.69830  0.49820  1.0000
  C   C47       1.0  0.89133  0.79901  0.49821  1.0000
  C   C48       1.0  0.72359  0.90017  0.49771  1.0000
  C   C49       1.0  0.77944  0.80023  0.49711  1.0000
  C   C50       1.0  0.94469  0.89938  0.49932  1.0000
  N   N1        1.0  0.22901  0.38637  0.49832  1.0000
  N   N2        1.0  0.22807  0.60521  0.49815  1.0000
  N   N3        1.0  0.38627  0.28975  0.51042  1.0000
  N   N4        1.0  0.60420  0.29557  0.50722  1.0000
  N   N5        1.0  0.60775  0.51196  0.49523  1.0000
  N   N6        1.0  0.44676  0.60549  0.49049  1.0000
  Fe  Fe1       1.0  0.34150  0.49056  0.48553  1.0000
  Ti  Ti1       1.0  0.48268  0.42045  0.52860  1.0000
