data_image0
_chemical_formula_structural       C50N6FeV
_chemical_formula_sum              "C50 N6 Fe1 V1"
_cell_length_a       12.6884
_cell_length_b       12.5668
_cell_length_c       19.9242
_cell_angle_alpha    89.9905
_cell_angle_beta     90.0502
_cell_angle_gamma    89.5962

_space_group_name_H-M_alt    "P 1"
_space_group_IT_number       1

loop_
  _space_group_symop_operation_xyz
  'x, y, z'

loop_
  _atom_site_type_symbol
  _atom_site_label
  _atom_site_symmetry_multiplicity
  _atom_site_fract_x
  _atom_site_fract_y
  _atom_site_fract_z
  _atom_site_occupancy
  C   C1        1.0  0.22117  0.99777  0.50034  1.0000
  C   C2        1.0  0.05418  0.09902  0.49985  1.0000
  C   C3        1.0  0.10973  0.99905  0.50018  1.0000
  C   C4        1.0  0.27651  0.09494  0.50063  1.0000
  C   C5        1.0  0.22088  0.19300  0.50051  1.0000
  C   C6        1.0  0.05705  0.29961  0.49956  1.0000
  C   C7        1.0  0.10947  0.19753  0.49974  1.0000
  C   C8        1.0  0.27866  0.28846  0.50093  1.0000
  C   C9        1.0  0.06476  0.49760  0.49969  1.0000
  C   C10       1.0  0.11981  0.39555  0.49893  1.0000
  C   C11       1.0  0.05886  0.69901  0.50039  1.0000
  C   C12       1.0  0.11962  0.60089  0.50044  1.0000
  C   C13       1.0  0.27840  0.70287  0.50062  1.0000
  C   C14       1.0  0.22335  0.80126  0.50080  1.0000
  C   C15       1.0  0.05576  0.89930  0.50027  1.0000
  C   C16       1.0  0.11159  0.79980  0.50068  1.0000
  C   C17       1.0  0.27768  0.89964  0.50037  1.0000
  C   C18       1.0  0.55594  0.99899  0.49906  1.0000
  C   C19       1.0  0.38842  0.09497  0.50030  1.0000
  C   C20       1.0  0.44478  0.99743  0.49948  1.0000
  C   C21       1.0  0.61025  0.09777  0.49932  1.0000
  C   C22       1.0  0.55484  0.19583  0.50041  1.0000
  C   C23       1.0  0.44183  0.19276  0.50153  1.0000
  C   C24       1.0  0.55551  0.60965  0.49873  1.0000
  C   C25       1.0  0.39159  0.70400  0.49906  1.0000
  C   C26       1.0  0.61263  0.70558  0.49872  1.0000
  C   C27       1.0  0.55702  0.80348  0.49863  1.0000
  C   C28       1.0  0.38888  0.89999  0.49982  1.0000
  C   C29       1.0  0.44509  0.80211  0.49927  1.0000
  C   C30       1.0  0.61230  0.90091  0.49886  1.0000
  C   C31       1.0  0.88899  0.00005  0.49962  1.0000
  C   C32       1.0  0.72202  0.09974  0.49936  1.0000
  C   C33       1.0  0.77769  0.00016  0.49930  1.0000
  C   C34       1.0  0.94232  0.10044  0.49974  1.0000
  C   C35       1.0  0.88735  0.20139  0.49988  1.0000
  C   C36       1.0  0.71355  0.29923  0.50053  1.0000
  C   C37       1.0  0.77453  0.20100  0.49987  1.0000
  C   C38       1.0  0.94332  0.30134  0.49993  1.0000
  C   C39       1.0  0.88620  0.40103  0.50017  1.0000
  C   C40       1.0  0.71633  0.50441  0.50095  1.0000
  C   C41       1.0  0.76989  0.40185  0.50074  1.0000
  C   C42       1.0  0.94848  0.49838  0.49999  1.0000
  C   C43       1.0  0.89146  0.59837  0.50000  1.0000
  C   C44       1.0  0.72437  0.70165  0.49957  1.0000
  C   C45       1.0  0.77811  0.60022  0.50003  1.0000
  C   C46       1.0  0.94645  0.69855  0.50001  1.0000
  C   C47       1.0  0.89115  0.79920  0.49983  1.0000
  C   C48       1.0  0.72373  0.90023  0.49914  1.0000
  C   C49       1.0  0.77930  0.80037  0.49952  1.0000
  C   C50       1.0  0.94449  0.89953  0.49986  1.0000
  N   N1        1.0  0.23103  0.38676  0.49779  1.0000
  N   N2        1.0  0.22759  0.60675  0.50096  1.0000
  N   N3        1.0  0.38639  0.28717  0.50404  1.0000
  N   N4        1.0  0.60457  0.29332  0.50108  1.0000
  N   N5        1.0  0.60620  0.51295  0.50219  1.0000
  N   N6        1.0  0.44649  0.60824  0.49687  1.0000
  Fe  Fe1       1.0  0.34558  0.49096  0.49416  1.0000
  V   V1        1.0  0.48218  0.41361  0.51034  1.0000
