data_image0
_chemical_formula_structural       C53N5FeTi
_chemical_formula_sum              "C53 N5 Fe1 Ti1"
_cell_length_a       12.8592
_cell_length_b       12.4055
_cell_length_c       19.9179
_cell_angle_alpha    90.5345
_cell_angle_beta     89.4156
_cell_angle_gamma    90.6403

_space_group_name_H-M_alt    "P 1"
_space_group_IT_number       1

loop_
  _space_group_symop_operation_xyz
  'x, y, z'

loop_
  _atom_site_type_symbol
  _atom_site_label
  _atom_site_symmetry_multiplicity
  _atom_site_fract_x
  _atom_site_fract_y
  _atom_site_fract_z
  _atom_site_occupancy
  C   C1        1.0  0.22123  0.00128  0.49157  1.0000
  C   C2        1.0  0.05672  0.10098  0.48846  1.0000
  C   C3        1.0  0.11031  0.00067  0.49010  1.0000
  C   C4        1.0  0.27739  0.10224  0.49071  1.0000
  C   C5        1.0  0.22439  0.20416  0.49468  1.0000
  C   C6        1.0  0.05674  0.30115  0.49311  1.0000
  C   C7        1.0  0.11268  0.20202  0.49191  1.0000
  C   C8        1.0  0.28131  0.30534  0.50289  1.0000
  C   C9        1.0  0.22156  0.40641  0.50872  1.0000
  C   C10       1.0  0.05295  0.50131  0.50122  1.0000
  C   C11       1.0  0.11072  0.40232  0.50026  1.0000
  C   C12       1.0  0.21701  0.60165  0.51565  1.0000
  C   C13       1.0  0.05169  0.70061  0.49957  1.0000
  C   C14       1.0  0.10716  0.60184  0.50471  1.0000
  C   C15       1.0  0.27226  0.70408  0.51713  1.0000
  C   C16       1.0  0.21874  0.80141  0.50195  1.0000
  C   C17       1.0  0.05388  0.90029  0.49123  1.0000
  C   C18       1.0  0.10794  0.80083  0.49668  1.0000
  C   C19       1.0  0.27549  0.90157  0.49663  1.0000
  C   C20       1.0  0.55412  0.99792  0.48543  1.0000
  C   C21       1.0  0.38798  0.09960  0.48697  1.0000
  C   C22       1.0  0.44307  0.99981  0.48748  1.0000
  C   C23       1.0  0.61133  0.09671  0.48098  1.0000
  C   C24       1.0  0.55643  0.19539  0.48328  1.0000
  C   C25       1.0  0.39407  0.29810  0.50160  1.0000
  C   C26       1.0  0.44521  0.19831  0.48823  1.0000
  C   C27       1.0  0.61441  0.29297  0.48667  1.0000
  C   C28       1.0  0.56120  0.38751  0.50443  1.0000
  C   C29       1.0  0.38002  0.71519  0.53602  1.0000
  C   C30       1.0  0.55383  0.80254  0.50849  1.0000
  C   C31       1.0  0.38711  0.90136  0.49692  1.0000
  C   C32       1.0  0.44176  0.80532  0.51229  1.0000
  C   C33       1.0  0.60914  0.89941  0.49256  1.0000
  C   C34       1.0  0.88878  0.99901  0.48574  1.0000
  C   C35       1.0  0.72267  0.09742  0.48099  1.0000
  C   C36       1.0  0.77740  0.99806  0.48454  1.0000
  C   C37       1.0  0.94552  0.09952  0.48543  1.0000
  C   C38       1.0  0.89070  0.19886  0.48464  1.0000
  C   C39       1.0  0.72475  0.29576  0.48557  1.0000
  C   C40       1.0  0.77961  0.19718  0.48193  1.0000
  C   C41       1.0  0.94563  0.29984  0.48909  1.0000
  C   C42       1.0  0.88923  0.39886  0.49268  1.0000
  C   C43       1.0  0.72021  0.49231  0.50515  1.0000
  C   C44       1.0  0.77858  0.39665  0.49302  1.0000
  C   C45       1.0  0.94158  0.50034  0.49838  1.0000
  C   C46       1.0  0.88343  0.59919  0.50123  1.0000
  C   C47       1.0  0.71613  0.70180  0.50795  1.0000
  C   C48       1.0  0.77023  0.59802  0.50648  1.0000
  C   C49       1.0  0.94017  0.69928  0.49839  1.0000
  C   C50       1.0  0.88596  0.79909  0.49426  1.0000
  C   C51       1.0  0.72057  0.89902  0.49082  1.0000
  C   C52       1.0  0.77464  0.79920  0.49698  1.0000
  C   C53       1.0  0.94259  0.89919  0.48966  1.0000
  N   N1        1.0  0.26847  0.50540  0.52257  1.0000
  N   N2        1.0  0.45641  0.38658  0.51689  1.0000
  N   N3        1.0  0.61419  0.48170  0.51720  1.0000
  N   N4        1.0  0.42309  0.64698  0.57879  1.0000
  N   N5        1.0  0.60919  0.70908  0.52084  1.0000
  Fe  Fe1       1.0  0.40391  0.50109  0.56882  1.0000
  Ti  Ti1       1.0  0.56147  0.59157  0.58507  1.0000
