data_image0
_chemical_formula_structural       C52N4FeV
_chemical_formula_sum              "C52 N4 Fe1 V1"
_cell_length_a       12.6884
_cell_length_b       12.5668
_cell_length_c       19.9242
_cell_angle_alpha    89.9905
_cell_angle_beta     90.0502
_cell_angle_gamma    89.5962

_space_group_name_H-M_alt    "P 1"
_space_group_IT_number       1

loop_
  _space_group_symop_operation_xyz
  'x, y, z'

loop_
  _atom_site_type_symbol
  _atom_site_label
  _atom_site_symmetry_multiplicity
  _atom_site_fract_x
  _atom_site_fract_y
  _atom_site_fract_z
  _atom_site_occupancy
  C   C1        1.0  0.22096  0.99806  0.49871  1.0000
  C   C2        1.0  0.05391  0.09878  0.49936  1.0000
  C   C3        1.0  0.10982  0.99883  0.49907  1.0000
  C   C4        1.0  0.27613  0.09625  0.49950  1.0000
  C   C5        1.0  0.22028  0.19449  0.50048  1.0000
  C   C6        1.0  0.05502  0.29886  0.50042  1.0000
  C   C7        1.0  0.10886  0.19758  0.49992  1.0000
  C   C8        1.0  0.27649  0.29182  0.50309  1.0000
  C   C9        1.0  0.06301  0.49869  0.49963  1.0000
  C   C10       1.0  0.11647  0.39617  0.50073  1.0000
  C   C11       1.0  0.05881  0.69881  0.49874  1.0000
  C   C12       1.0  0.11945  0.60018  0.49888  1.0000
  C   C13       1.0  0.27872  0.70184  0.49755  1.0000
  C   C14       1.0  0.22348  0.80070  0.49822  1.0000
  C   C15       1.0  0.05585  0.89895  0.49903  1.0000
  C   C16       1.0  0.11180  0.79956  0.49882  1.0000
  C   C17       1.0  0.27757  0.89965  0.49802  1.0000
  C   C18       1.0  0.55568  0.99886  0.49745  1.0000
  C   C19       1.0  0.38757  0.09658  0.49966  1.0000
  C   C20       1.0  0.44420  0.99826  0.49795  1.0000
  C   C21       1.0  0.61043  0.09771  0.49933  1.0000
  C   C22       1.0  0.55462  0.19555  0.50337  1.0000
  C   C23       1.0  0.44145  0.19546  0.50263  1.0000
  C   C24       1.0  0.55543  0.60707  0.49699  1.0000
  C   C25       1.0  0.39134  0.70267  0.49583  1.0000
  C   C26       1.0  0.61232  0.70430  0.49594  1.0000
  C   C27       1.0  0.55660  0.80245  0.49539  1.0000
  C   C28       1.0  0.38881  0.89999  0.49722  1.0000
  C   C29       1.0  0.44472  0.80127  0.49603  1.0000
  C   C30       1.0  0.61170  0.90042  0.49629  1.0000
  C   C31       1.0  0.88874  0.99959  0.49879  1.0000
  C   C32       1.0  0.72194  0.10005  0.49929  1.0000
  C   C33       1.0  0.77772  0.99999  0.49822  1.0000
  C   C34       1.0  0.94241  0.10012  0.49928  1.0000
  C   C35       1.0  0.88712  0.20077  0.49996  1.0000
  C   C36       1.0  0.71600  0.30088  0.50428  1.0000
  C   C37       1.0  0.77484  0.20108  0.50072  1.0000
  C   C38       1.0  0.94272  0.30088  0.50054  1.0000
  C   C39       1.0  0.88685  0.40192  0.50097  1.0000
  C   C40       1.0  0.71770  0.50409  0.50154  1.0000
  C   C41       1.0  0.77252  0.40281  0.50285  1.0000
  C   C42       1.0  0.94795  0.49944  0.49973  1.0000
  C   C43       1.0  0.89111  0.59874  0.49900  1.0000
  C   C44       1.0  0.72389  0.70133  0.49756  1.0000
  C   C45       1.0  0.77794  0.60029  0.49909  1.0000
  C   C46       1.0  0.94663  0.69855  0.49867  1.0000
  C   C47       1.0  0.89098  0.79912  0.49850  1.0000
  C   C48       1.0  0.72342  0.90001  0.49717  1.0000
  C   C49       1.0  0.77912  0.80026  0.49762  1.0000
  C   C50       1.0  0.94451  0.89916  0.49884  1.0000
  C   C51       1.0  0.38787  0.29475  0.50650  1.0000
  C   C52       1.0  0.60466  0.29555  0.50888  1.0000
  N   N1        1.0  0.22405  0.38864  0.50210  1.0000
  N   N2        1.0  0.22778  0.60510  0.49842  1.0000
  N   N3        1.0  0.60667  0.51132  0.50319  1.0000
  N   N4        1.0  0.44666  0.60562  0.49420  1.0000
  Fe  Fe1       1.0  0.34578  0.48661  0.49361  1.0000
  V   V1        1.0  0.49727  0.40917  0.53881  1.0000
