data_image0
_chemical_formula_structural       C50N6FeV
_chemical_formula_sum              "C50 N6 Fe1 V1"
_cell_length_a       12.7324
_cell_length_b       12.4907
_cell_length_c       19.9757
_cell_angle_alpha    90.0113
_cell_angle_beta     89.9894
_cell_angle_gamma    90.005

_space_group_name_H-M_alt    "P 1"
_space_group_IT_number       1

loop_
  _space_group_symop_operation_xyz
  'x, y, z'

loop_
  _atom_site_type_symbol
  _atom_site_label
  _atom_site_symmetry_multiplicity
  _atom_site_fract_x
  _atom_site_fract_y
  _atom_site_fract_z
  _atom_site_occupancy
  C   C1        1.0  0.22102  0.00002  0.50001  1.0000
  C   C2        1.0  0.05523  0.10071  0.50001  1.0000
  C   C3        1.0  0.10953  0.00003  0.50000  1.0000
  C   C4        1.0  0.27668  0.09938  0.50002  1.0000
  C   C5        1.0  0.22392  0.20003  0.49999  1.0000
  C   C6        1.0  0.05557  0.30047  0.50002  1.0000
  C   C7        1.0  0.11129  0.20078  0.50002  1.0000
  C   C8        1.0  0.28356  0.29832  0.49989  1.0000
  C   C9        1.0  0.22602  0.39843  0.49992  1.0000
  C   C10       1.0  0.05608  0.49973  0.50003  1.0000
  C   C11       1.0  0.11280  0.39953  0.50000  1.0000
  C   C12       1.0  0.28148  0.49866  0.49982  1.0000
  C   C13       1.0  0.22636  0.60074  0.49998  1.0000
  C   C14       1.0  0.05555  0.69914  0.50003  1.0000
  C   C15       1.0  0.11318  0.59995  0.50003  1.0000
  C   C16       1.0  0.28247  0.70200  0.50001  1.0000
  C   C17       1.0  0.22315  0.80007  0.50002  1.0000
  C   C18       1.0  0.05510  0.89940  0.49999  1.0000
  C   C19       1.0  0.11081  0.79917  0.50001  1.0000
  C   C20       1.0  0.27645  0.90083  0.50002  1.0000
  C   C21       1.0  0.55448  0.00048  0.50003  1.0000
  C   C22       1.0  0.38813  0.09879  0.50002  1.0000
  C   C23       1.0  0.44394  0.00048  0.50005  1.0000
  C   C24       1.0  0.61031  0.09878  0.50000  1.0000
  C   C25       1.0  0.55535  0.19663  0.49995  1.0000
  C   C26       1.0  0.44311  0.19664  0.49992  1.0000
  C   C27       1.0  0.55558  0.80436  0.50004  1.0000
  C   C28       1.0  0.38808  0.90205  0.50004  1.0000
  C   C29       1.0  0.44280  0.80437  0.50004  1.0000
  C   C30       1.0  0.61031  0.90204  0.50003  1.0000
  C   C31       1.0  0.88888  0.00002  0.50000  1.0000
  C   C32       1.0  0.72176  0.09935  0.50000  1.0000
  C   C33       1.0  0.77740  0.99999  0.50000  1.0000
  C   C34       1.0  0.94321  0.10069  0.50001  1.0000
  C   C35       1.0  0.88717  0.20077  0.50001  1.0000
  C   C36       1.0  0.71491  0.29829  0.49995  1.0000
  C   C37       1.0  0.77454  0.20000  0.50000  1.0000
  C   C38       1.0  0.94290  0.30046  0.50003  1.0000
  C   C39       1.0  0.88566  0.39951  0.50003  1.0000
  C   C40       1.0  0.71696  0.49862  0.49982  1.0000
  C   C41       1.0  0.77245  0.39840  0.49996  1.0000
  C   C42       1.0  0.94236  0.49972  0.50004  1.0000
  C   C43       1.0  0.88524  0.59993  0.50004  1.0000
  C   C44       1.0  0.71592  0.70197  0.50001  1.0000
  C   C45       1.0  0.77205  0.60072  0.49999  1.0000
  C   C46       1.0  0.94284  0.69913  0.50003  1.0000
  C   C47       1.0  0.88757  0.79915  0.50001  1.0000
  C   C48       1.0  0.72194  0.90080  0.50001  1.0000
  C   C49       1.0  0.77523  0.80004  0.50002  1.0000
  C   C50       1.0  0.94328  0.89939  0.49999  1.0000
  N   N1        1.0  0.39302  0.29476  0.49979  1.0000
  N   N2        1.0  0.60545  0.29475  0.49987  1.0000
  N   N3        1.0  0.38641  0.49920  0.49952  1.0000
  N   N4        1.0  0.61204  0.49918  0.49945  1.0000
  N   N5        1.0  0.39158  0.70679  0.50000  1.0000
  N   N6        1.0  0.60681  0.70678  0.50000  1.0000
  Fe  Fe1       1.0  0.49923  0.40472  0.49954  1.0000
  V   V1        1.0  0.49923  0.58744  0.49942  1.0000
