data_image0
_chemical_formula_structural       C49N6FeNi
_chemical_formula_sum              "C49 N6 Fe1 Ni1"
_cell_length_a       12.8929
_cell_length_b       12.2637
_cell_length_c       20.0944
_cell_angle_alpha    90.0213
_cell_angle_beta     89.9023
_cell_angle_gamma    89.1462

_space_group_name_H-M_alt    "P 1"
_space_group_IT_number       1

loop_
  _space_group_symop_operation_xyz
  'x, y, z'

loop_
  _atom_site_type_symbol
  _atom_site_label
  _atom_site_symmetry_multiplicity
  _atom_site_fract_x
  _atom_site_fract_y
  _atom_site_fract_z
  _atom_site_occupancy
  C   C1        1.0  0.22074  0.99943  0.50012  1.0000
  C   C2        1.0  0.05220  0.10103  0.50014  1.0000
  C   C3        1.0  0.10945  0.00074  0.50012  1.0000
  C   C4        1.0  0.27492  0.09933  0.49998  1.0000
  C   C5        1.0  0.21792  0.19960  0.49990  1.0000
  C   C6        1.0  0.05187  0.30108  0.50008  1.0000
  C   C7        1.0  0.10708  0.20051  0.50009  1.0000
  C   C8        1.0  0.27325  0.29819  0.49950  1.0000
  C   C9        1.0  0.21827  0.40017  0.49951  1.0000
  C   C10       1.0  0.05511  0.50158  0.49993  1.0000
  C   C11       1.0  0.10847  0.40014  0.49986  1.0000
  C   C12       1.0  0.22461  0.59561  0.49964  1.0000
  C   C13       1.0  0.05740  0.70145  0.49992  1.0000
  C   C14       1.0  0.11343  0.60025  0.49982  1.0000
  C   C15       1.0  0.28319  0.69794  0.49984  1.0000
  C   C16       1.0  0.22369  0.79819  0.50001  1.0000
  C   C17       1.0  0.05499  0.90112  0.50002  1.0000
  C   C18       1.0  0.11229  0.80060  0.49998  1.0000
  C   C19       1.0  0.27806  0.89847  0.50009  1.0000
  C   C20       1.0  0.55320  0.00094  0.49996  1.0000
  C   C21       1.0  0.38575  0.10087  0.49985  1.0000
  C   C22       1.0  0.44273  0.99977  0.49998  1.0000
  C   C23       1.0  0.60622  0.10409  0.49991  1.0000
  C   C24       1.0  0.54927  0.20588  0.49975  1.0000
  C   C25       1.0  0.43746  0.20458  0.49956  1.0000
  C   C26       1.0  0.60504  0.30882  0.49994  1.0000
  C   C27       1.0  0.55780  0.79361  0.50013  1.0000
  C   C28       1.0  0.38912  0.89741  0.50006  1.0000
  C   C29       1.0  0.44249  0.79247  0.50003  1.0000
  C   C30       1.0  0.60918  0.89877  0.50004  1.0000
  C   C31       1.0  0.88601  0.00300  0.49997  1.0000
  C   C32       1.0  0.71788  0.10532  0.50001  1.0000
  C   C33       1.0  0.77452  0.00422  0.49994  1.0000
  C   C34       1.0  0.94082  0.10280  0.50008  1.0000
  C   C35       1.0  0.88457  0.20380  0.50018  1.0000
  C   C36       1.0  0.71786  0.30893  0.50036  1.0000
  C   C37       1.0  0.77294  0.20659  0.50019  1.0000
  C   C38       1.0  0.94095  0.30293  0.50022  1.0000
  C   C39       1.0  0.88709  0.40463  0.50037  1.0000
  C   C40       1.0  0.77566  0.40938  0.50058  1.0000
  C   C41       1.0  0.94495  0.50298  0.50021  1.0000
  C   C42       1.0  0.89105  0.60446  0.50023  1.0000
  C   C43       1.0  0.72272  0.70453  0.50032  1.0000
  C   C44       1.0  0.78188  0.60444  0.50052  1.0000
  C   C45       1.0  0.94661  0.70345  0.50001  1.0000
  C   C46       1.0  0.88940  0.80307  0.49999  1.0000
  C   C47       1.0  0.72038  0.90299  0.49998  1.0000
  C   C48       1.0  0.77802  0.80354  0.50008  1.0000
  C   C49       1.0  0.94359  0.90282  0.49995  1.0000
  N   N1        1.0  0.27479  0.49574  0.49930  1.0000
  N   N2        1.0  0.38011  0.30056  0.49919  1.0000
  N   N3        1.0  0.55292  0.40384  0.49965  1.0000
  N   N4        1.0  0.38925  0.69688  0.49989  1.0000
  N   N5        1.0  0.61552  0.69812  0.50027  1.0000
  N   N6        1.0  0.72757  0.50971  0.50085  1.0000
  Fe  Fe1       1.0  0.42193  0.45770  0.49842  1.0000
  Ni  Ni1       1.0  0.58636  0.54077  0.50017  1.0000
