data_image0
_chemical_formula_structural       C54N4FeV
_chemical_formula_sum              "C54 N4 Fe1 V1"
_cell_length_a       12.9033
_cell_length_b       12.3607
_cell_length_c       19.9211
_cell_angle_alpha    90.7251
_cell_angle_beta     89.8946
_cell_angle_gamma    90.5774

_space_group_name_H-M_alt    "P 1"
_space_group_IT_number       1

loop_
  _space_group_symop_operation_xyz
  'x, y, z'

loop_
  _atom_site_type_symbol
  _atom_site_label
  _atom_site_symmetry_multiplicity
  _atom_site_fract_x
  _atom_site_fract_y
  _atom_site_fract_z
  _atom_site_occupancy
  C   C1        1.0  0.22080  0.00281  0.49678  1.0000
  C   C2        1.0  0.05556  0.10193  0.49315  1.0000
  C   C3        1.0  0.10977  0.00210  0.49377  1.0000
  C   C4        1.0  0.27734  0.10342  0.49886  1.0000
  C   C5        1.0  0.22379  0.20494  0.50048  1.0000
  C   C6        1.0  0.05607  0.30144  0.49416  1.0000
  C   C7        1.0  0.11214  0.20257  0.49594  1.0000
  C   C8        1.0  0.28026  0.30650  0.50704  1.0000
  C   C9        1.0  0.22075  0.40686  0.50719  1.0000
  C   C10       1.0  0.05385  0.50149  0.49505  1.0000
  C   C11       1.0  0.11052  0.40259  0.49746  1.0000
  C   C12       1.0  0.21685  0.60248  0.50741  1.0000
  C   C13       1.0  0.05271  0.70201  0.49253  1.0000
  C   C14       1.0  0.10794  0.60281  0.49671  1.0000
  C   C15       1.0  0.27186  0.70437  0.50850  1.0000
  C   C16       1.0  0.21809  0.80267  0.49893  1.0000
  C   C17       1.0  0.05343  0.90193  0.49177  1.0000
  C   C18       1.0  0.10790  0.80226  0.49333  1.0000
  C   C19       1.0  0.27485  0.90288  0.49940  1.0000
  C   C20       1.0  0.55397  0.99765  0.49869  1.0000
  C   C21       1.0  0.38824  0.10100  0.49900  1.0000
  C   C22       1.0  0.44309  0.00047  0.49908  1.0000
  C   C23       1.0  0.61056  0.09799  0.49645  1.0000
  C   C24       1.0  0.55619  0.19803  0.49882  1.0000
  C   C25       1.0  0.39341  0.30201  0.50918  1.0000
  C   C26       1.0  0.44531  0.20034  0.50126  1.0000
  C   C27       1.0  0.61286  0.29791  0.49868  1.0000
  C   C28       1.0  0.55785  0.39620  0.50845  1.0000
  C   C29       1.0  0.61452  0.49701  0.50768  1.0000
  C   C30       1.0  0.61144  0.69512  0.50744  1.0000
  C   C31       1.0  0.55099  0.79472  0.50681  1.0000
  C   C32       1.0  0.38596  0.90121  0.50187  1.0000
  C   C33       1.0  0.43797  0.80067  0.50949  1.0000
  C   C34       1.0  0.60781  0.89641  0.50030  1.0000
  C   C35       1.0  0.88735  0.00010  0.49118  1.0000
  C   C36       1.0  0.72155  0.09852  0.49365  1.0000
  C   C37       1.0  0.77596  0.99884  0.49306  1.0000
  C   C38       1.0  0.94409  0.10048  0.49122  1.0000
  C   C39       1.0  0.88896  0.19974  0.49094  1.0000
  C   C40       1.0  0.72320  0.29824  0.49360  1.0000
  C   C41       1.0  0.77794  0.19860  0.49187  1.0000
  C   C42       1.0  0.94496  0.30029  0.49137  1.0000
  C   C43       1.0  0.88924  0.39946  0.49140  1.0000
  C   C44       1.0  0.72331  0.49743  0.49755  1.0000
  C   C45       1.0  0.77867  0.39825  0.49302  1.0000
  C   C46       1.0  0.94367  0.50032  0.49213  1.0000
  C   C47       1.0  0.88752  0.59992  0.49231  1.0000
  C   C48       1.0  0.72121  0.69839  0.49816  1.0000
  C   C49       1.0  0.77754  0.59886  0.49585  1.0000
  C   C50       1.0  0.94214  0.70090  0.49121  1.0000
  C   C51       1.0  0.88660  0.80025  0.49131  1.0000
  C   C52       1.0  0.71932  0.89823  0.49589  1.0000
  C   C53       1.0  0.77557  0.79937  0.49433  1.0000
  C   C54       1.0  0.94248  0.90078  0.49080  1.0000
  N   N1        1.0  0.26762  0.50636  0.51806  1.0000
  N   N2        1.0  0.45248  0.39421  0.51987  1.0000
  N   N3        1.0  0.56461  0.59477  0.51925  1.0000
  N   N4        1.0  0.37754  0.70843  0.52158  1.0000
  Fe  Fe1       1.0  0.38333  0.49583  0.58046  1.0000
  V   V1        1.0  0.45400  0.62034  0.58215  1.0000
