data_image0
_chemical_formula_structural       C50N6CuFe
_chemical_formula_sum              "C50 N6 Cu1 Fe1"
_cell_length_a       12.681
_cell_length_b       12.5385
_cell_length_c       19.9804
_cell_angle_alpha    89.997
_cell_angle_beta     90.0334
_cell_angle_gamma    89.9393

_space_group_name_H-M_alt    "P 1"
_space_group_IT_number       1

loop_
  _space_group_symop_operation_xyz
  'x, y, z'

loop_
  _atom_site_type_symbol
  _atom_site_label
  _atom_site_symmetry_multiplicity
  _atom_site_fract_x
  _atom_site_fract_y
  _atom_site_fract_z
  _atom_site_occupancy
  C   C1        1.0  0.22151  0.99906  0.49999  1.0000
  C   C2        1.0  0.05520  0.10005  0.49998  1.0000
  C   C3        1.0  0.11001  0.00003  0.50000  1.0000
  C   C4        1.0  0.27741  0.09646  0.50000  1.0000
  C   C5        1.0  0.22331  0.19551  0.50010  1.0000
  C   C6        1.0  0.05807  0.30044  0.50003  1.0000
  C   C7        1.0  0.11135  0.19915  0.50003  1.0000
  C   C8        1.0  0.28199  0.29204  0.50019  1.0000
  C   C9        1.0  0.06399  0.49834  0.49998  1.0000
  C   C10       1.0  0.12074  0.39693  0.50005  1.0000
  C   C11       1.0  0.05695  0.70009  0.50001  1.0000
  C   C12       1.0  0.11713  0.60217  0.49997  1.0000
  C   C13       1.0  0.27683  0.70388  0.50006  1.0000
  C   C14       1.0  0.22239  0.80233  0.50004  1.0000
  C   C15       1.0  0.05537  0.90014  0.50001  1.0000
  C   C16       1.0  0.11065  0.80068  0.50001  1.0000
  C   C17       1.0  0.27743  0.90058  0.50003  1.0000
  C   C18       1.0  0.55587  0.99809  0.49981  1.0000
  C   C19       1.0  0.38905  0.09568  0.49994  1.0000
  C   C20       1.0  0.44485  0.99757  0.49988  1.0000
  C   C21       1.0  0.61084  0.09687  0.49990  1.0000
  C   C22       1.0  0.55543  0.19434  0.50029  1.0000
  C   C23       1.0  0.44330  0.19366  0.50011  1.0000
  C   C24       1.0  0.55313  0.60626  0.50003  1.0000
  C   C25       1.0  0.38998  0.70274  0.50018  1.0000
  C   C26       1.0  0.61092  0.70314  0.49985  1.0000
  C   C27       1.0  0.55605  0.80180  0.49993  1.0000
  C   C28       1.0  0.38854  0.89972  0.49998  1.0000
  C   C29       1.0  0.44422  0.80117  0.50004  1.0000
  C   C30       1.0  0.61171  0.89970  0.49988  1.0000
  C   C31       1.0  0.88918  0.00015  0.49996  1.0000
  C   C32       1.0  0.72255  0.09903  0.49991  1.0000
  C   C33       1.0  0.77780  0.99963  0.49994  1.0000
  C   C34       1.0  0.94320  0.10079  0.49991  1.0000
  C   C35       1.0  0.88807  0.20140  0.49984  1.0000
  C   C36       1.0  0.71492  0.29876  0.50026  1.0000
  C   C37       1.0  0.77530  0.20042  0.49988  1.0000
  C   C38       1.0  0.94407  0.30163  0.49994  1.0000
  C   C39       1.0  0.88642  0.40081  0.50000  1.0000
  C   C40       1.0  0.71511  0.50267  0.50004  1.0000
  C   C41       1.0  0.77016  0.40114  0.50014  1.0000
  C   C42       1.0  0.94786  0.49853  0.49999  1.0000
  C   C43       1.0  0.89013  0.59802  0.50001  1.0000
  C   C44       1.0  0.72283  0.70023  0.49987  1.0000
  C   C45       1.0  0.77661  0.59919  0.49996  1.0000
  C   C46       1.0  0.94486  0.69882  0.50002  1.0000
  C   C47       1.0  0.88993  0.79924  0.50003  1.0000
  C   C48       1.0  0.72317  0.89944  0.49994  1.0000
  C   C49       1.0  0.77814  0.79963  0.49996  1.0000
  C   C50       1.0  0.94407  0.89976  0.50002  1.0000
  N   N1        1.0  0.23191  0.38849  0.50004  1.0000
  N   N2        1.0  0.22407  0.60881  0.49992  1.0000
  N   N3        1.0  0.39130  0.29081  0.50023  1.0000
  N   N4        1.0  0.60585  0.29245  0.50105  1.0000
  N   N5        1.0  0.60421  0.50957  0.49991  1.0000
  N   N6        1.0  0.44424  0.60555  0.50030  1.0000
  Cu  Cu1       1.0  0.33588  0.50086  0.49989  1.0000
  Fe  Fe1       1.0  0.50027  0.40120  0.50125  1.0000
