data_image0
_chemical_formula_structural       C52N4ZnFe
_chemical_formula_sum              "C52 N4 Zn1 Fe1"
_cell_length_a       12.771
_cell_length_b       12.5084
_cell_length_c       19.8874
_cell_angle_alpha    89.9945
_cell_angle_beta     90.028
_cell_angle_gamma    89.7514

_space_group_name_H-M_alt    "P 1"
_space_group_IT_number       1

loop_
  _space_group_symop_operation_xyz
  'x, y, z'

loop_
  _atom_site_type_symbol
  _atom_site_label
  _atom_site_symmetry_multiplicity
  _atom_site_fract_x
  _atom_site_fract_y
  _atom_site_fract_z
  _atom_site_occupancy
  C   C1        1.0  0.22177  0.99848  0.50001  1.0000
  C   C2        1.0  0.05454  0.09931  0.49998  1.0000
  C   C3        1.0  0.11040  0.99949  0.50000  1.0000
  C   C4        1.0  0.27766  0.09657  0.50005  1.0000
  C   C5        1.0  0.22202  0.19504  0.50009  1.0000
  C   C6        1.0  0.05552  0.29866  0.50001  1.0000
  C   C7        1.0  0.11027  0.19791  0.50002  1.0000
  C   C8        1.0  0.27890  0.29230  0.50019  1.0000
  C   C9        1.0  0.06172  0.49853  0.50000  1.0000
  C   C10       1.0  0.11603  0.39594  0.50005  1.0000
  C   C11       1.0  0.05668  0.70040  0.49999  1.0000
  C   C12       1.0  0.11552  0.60170  0.50000  1.0000
  C   C13       1.0  0.27610  0.70323  0.50004  1.0000
  C   C14       1.0  0.22224  0.80176  0.50002  1.0000
  C   C15       1.0  0.05547  0.90007  0.49999  1.0000
  C   C16       1.0  0.11083  0.80048  0.50001  1.0000
  C   C17       1.0  0.27777  0.90004  0.50001  1.0000
  C   C18       1.0  0.55560  0.99841  0.49991  1.0000
  C   C19       1.0  0.38888  0.09646  0.50006  1.0000
  C   C20       1.0  0.44446  0.99752  0.49996  1.0000
  C   C21       1.0  0.61099  0.09771  0.49998  1.0000
  C   C22       1.0  0.55592  0.19549  0.50014  1.0000
  C   C23       1.0  0.44333  0.19618  0.50018  1.0000
  C   C24       1.0  0.55855  0.60530  0.50019  1.0000
  C   C25       1.0  0.39007  0.69860  0.50008  1.0000
  C   C26       1.0  0.61336  0.70367  0.50003  1.0000
  C   C27       1.0  0.55611  0.80106  0.49995  1.0000
  C   C28       1.0  0.38896  0.89866  0.49997  1.0000
  C   C29       1.0  0.44449  0.79907  0.49999  1.0000
  C   C30       1.0  0.61149  0.90010  0.49989  1.0000
  C   C31       1.0  0.88876  0.00019  0.49993  1.0000
  C   C32       1.0  0.72214  0.09945  0.49995  1.0000
  C   C33       1.0  0.77774  0.99991  0.49990  1.0000
  C   C34       1.0  0.94277  0.10043  0.49995  1.0000
  C   C35       1.0  0.88709  0.20089  0.49998  1.0000
  C   C36       1.0  0.71496  0.29953  0.50014  1.0000
  C   C37       1.0  0.77464  0.20060  0.50001  1.0000
  C   C38       1.0  0.94312  0.30043  0.49999  1.0000
  C   C39       1.0  0.88685  0.40050  0.50003  1.0000
  C   C40       1.0  0.71992  0.50318  0.50017  1.0000
  C   C41       1.0  0.77233  0.40082  0.50013  1.0000
  C   C42       1.0  0.94720  0.49872  0.50000  1.0000
  C   C43       1.0  0.89104  0.59899  0.49999  1.0000
  C   C44       1.0  0.72459  0.70157  0.50000  1.0000
  C   C45       1.0  0.77912  0.60058  0.50004  1.0000
  C   C46       1.0  0.94541  0.69961  0.49997  1.0000
  C   C47       1.0  0.89033  0.80004  0.49995  1.0000
  C   C48       1.0  0.72288  0.90009  0.49989  1.0000
  C   C49       1.0  0.77901  0.80067  0.49993  1.0000
  C   C50       1.0  0.94448  0.90002  0.49995  1.0000
  C   C51       1.0  0.39113  0.29639  0.50029  1.0000
  C   C52       1.0  0.44782  0.59934  0.50020  1.0000
  N   N1        1.0  0.22347  0.38769  0.50016  1.0000
  N   N2        1.0  0.22226  0.60906  0.50003  1.0000
  N   N3        1.0  0.60536  0.29391  0.50023  1.0000
  N   N4        1.0  0.61258  0.50934  0.50032  1.0000
  Zn  Zn1       1.0  0.32940  0.49580  0.50017  1.0000
  Fe  Fe1       1.0  0.50427  0.40976  0.50039  1.0000
