data_image0
_chemical_formula_structural       C52N4FeV
_chemical_formula_sum              "C52 N4 Fe1 V1"
_cell_length_a       12.7673
_cell_length_b       12.5244
_cell_length_c       19.8676
_cell_angle_alpha    90.0124
_cell_angle_beta     89.9893
_cell_angle_gamma    90.0003

_space_group_name_H-M_alt    "P 1"
_space_group_IT_number       1

loop_
  _space_group_symop_operation_xyz
  'x, y, z'

loop_
  _atom_site_type_symbol
  _atom_site_label
  _atom_site_symmetry_multiplicity
  _atom_site_fract_x
  _atom_site_fract_y
  _atom_site_fract_z
  _atom_site_occupancy
  C   C1        1.0  0.22049  0.99981  0.50002  1.0000
  C   C2        1.0  0.05492  0.10033  0.50001  1.0000
  C   C3        1.0  0.10953  0.99966  0.50000  1.0000
  C   C4        1.0  0.27616  0.09929  0.50001  1.0000
  C   C5        1.0  0.22284  0.19992  0.49998  1.0000
  C   C6        1.0  0.05505  0.30021  0.50003  1.0000
  C   C7        1.0  0.11084  0.20022  0.50001  1.0000
  C   C8        1.0  0.28153  0.29913  0.49989  1.0000
  C   C9        1.0  0.22349  0.39935  0.49991  1.0000
  C   C10       1.0  0.05561  0.50080  0.50003  1.0000
  C   C11       1.0  0.11189  0.40036  0.50000  1.0000
  C   C12       1.0  0.27965  0.49970  0.49981  1.0000
  C   C13       1.0  0.22525  0.60116  0.49997  1.0000
  C   C14       1.0  0.05520  0.69959  0.50004  1.0000
  C   C15       1.0  0.11251  0.60053  0.50003  1.0000
  C   C16       1.0  0.28202  0.70223  0.50000  1.0000
  C   C17       1.0  0.22267  0.80046  0.50003  1.0000
  C   C18       1.0  0.05498  0.89926  0.50000  1.0000
  C   C19       1.0  0.11069  0.79951  0.50002  1.0000
  C   C20       1.0  0.27624  0.90062  0.50003  1.0000
  C   C21       1.0  0.55461  0.99923  0.50003  1.0000
  C   C22       1.0  0.38729  0.09719  0.50001  1.0000
  C   C23       1.0  0.44381  0.99923  0.50004  1.0000
  C   C24       1.0  0.61114  0.09718  0.50001  1.0000
  C   C25       1.0  0.55545  0.19413  0.49994  1.0000
  C   C26       1.0  0.44298  0.19414  0.49993  1.0000
  C   C27       1.0  0.55576  0.80350  0.50004  1.0000
  C   C28       1.0  0.38804  0.90122  0.50005  1.0000
  C   C29       1.0  0.44265  0.80350  0.50004  1.0000
  C   C30       1.0  0.61038  0.90122  0.50004  1.0000
  C   C31       1.0  0.88889  0.99965  0.50000  1.0000
  C   C32       1.0  0.72227  0.09928  0.50001  1.0000
  C   C33       1.0  0.77794  0.99980  0.50001  1.0000
  C   C34       1.0  0.94351  0.10033  0.50001  1.0000
  C   C35       1.0  0.88760  0.20022  0.50002  1.0000
  C   C36       1.0  0.71691  0.29911  0.49994  1.0000
  C   C37       1.0  0.77560  0.19990  0.50000  1.0000
  C   C38       1.0  0.94338  0.30020  0.50004  1.0000
  C   C39       1.0  0.88655  0.40035  0.50003  1.0000
  C   C40       1.0  0.71878  0.49969  0.49981  1.0000
  C   C41       1.0  0.77495  0.39934  0.49994  1.0000
  C   C42       1.0  0.94282  0.50079  0.50004  1.0000
  C   C43       1.0  0.88591  0.60052  0.50004  1.0000
  C   C44       1.0  0.71640  0.70222  0.50000  1.0000
  C   C45       1.0  0.77317  0.60115  0.49997  1.0000
  C   C46       1.0  0.94322  0.69959  0.50004  1.0000
  C   C47       1.0  0.88773  0.79950  0.50002  1.0000
  C   C48       1.0  0.72217  0.90061  0.50002  1.0000
  C   C49       1.0  0.77575  0.80045  0.50003  1.0000
  C   C50       1.0  0.94343  0.89926  0.50000  1.0000
  C   C51       1.0  0.39292  0.29503  0.49981  1.0000
  C   C52       1.0  0.60553  0.29502  0.49986  1.0000
  N   N1        1.0  0.38432  0.50025  0.49953  1.0000
  N   N2        1.0  0.61411  0.50024  0.49949  1.0000
  N   N3        1.0  0.39026  0.70667  0.49997  1.0000
  N   N4        1.0  0.60815  0.70666  0.49997  1.0000
  Fe  Fe1       1.0  0.49922  0.40654  0.49954  1.0000
  V   V1        1.0  0.49922  0.58751  0.49942  1.0000
