data_image0
_chemical_formula_structural       C49N7FeSc
_chemical_formula_sum              "C49 N7 Fe1 Sc1"
_cell_length_a       13.0231
_cell_length_b       12.2755
_cell_length_c       19.8726
_cell_angle_alpha    89.9665
_cell_angle_beta     89.921
_cell_angle_gamma    90.3102

_space_group_name_H-M_alt    "P 1"
_space_group_IT_number       1

loop_
  _space_group_symop_operation_xyz
  'x, y, z'

loop_
  _atom_site_type_symbol
  _atom_site_label
  _atom_site_symmetry_multiplicity
  _atom_site_fract_x
  _atom_site_fract_y
  _atom_site_fract_z
  _atom_site_occupancy
  C   C1        1.0  0.22731  0.00185  0.50029  1.0000
  C   C2        1.0  0.05815  0.10066  0.50062  1.0000
  C   C3        1.0  0.11541  0.00126  0.50076  1.0000
  C   C4        1.0  0.28268  0.10600  0.50094  1.0000
  C   C5        1.0  0.22312  0.20676  0.50140  1.0000
  C   C6        1.0  0.05148  0.29941  0.50085  1.0000
  C   C7        1.0  0.11163  0.20193  0.50075  1.0000
  C   C8        1.0  0.20976  0.40152  0.50157  1.0000
  C   C9        1.0  0.04811  0.50081  0.50134  1.0000
  C   C10       1.0  0.10260  0.40091  0.50116  1.0000
  C   C11       1.0  0.26438  0.50141  0.50143  1.0000
  C   C12       1.0  0.21024  0.60209  0.50028  1.0000
  C   C13       1.0  0.05069  0.70179  0.50140  1.0000
  C   C14       1.0  0.10240  0.60097  0.50115  1.0000
  C   C15       1.0  0.22065  0.79746  0.49941  1.0000
  C   C16       1.0  0.05729  0.90159  0.50136  1.0000
  C   C17       1.0  0.10993  0.80078  0.50128  1.0000
  C   C18       1.0  0.28153  0.89764  0.49906  1.0000
  C   C19       1.0  0.55804  0.99912  0.50064  1.0000
  C   C20       1.0  0.39483  0.10470  0.50090  1.0000
  C   C21       1.0  0.44758  0.00073  0.50048  1.0000
  C   C22       1.0  0.61470  0.09891  0.50062  1.0000
  C   C23       1.0  0.55969  0.19834  0.50032  1.0000
  C   C24       1.0  0.61472  0.30009  0.49992  1.0000
  C   C25       1.0  0.61089  0.49679  0.49906  1.0000
  C   C26       1.0  0.61306  0.69665  0.49854  1.0000
  C   C27       1.0  0.55716  0.79934  0.49886  1.0000
  C   C28       1.0  0.39386  0.89732  0.49879  1.0000
  C   C29       1.0  0.61377  0.89911  0.50061  1.0000
  C   C30       1.0  0.89066  0.00014  0.50111  1.0000
  C   C31       1.0  0.72467  0.09870  0.50059  1.0000
  C   C32       1.0  0.78036  0.99950  0.50112  1.0000
  C   C33       1.0  0.94686  0.10004  0.50062  1.0000
  C   C34       1.0  0.88928  0.19863  0.50039  1.0000
  C   C35       1.0  0.72333  0.29812  0.50019  1.0000
  C   C36       1.0  0.77931  0.19834  0.50028  1.0000
  C   C37       1.0  0.94255  0.29917  0.50063  1.0000
  C   C38       1.0  0.88634  0.39926  0.50100  1.0000
  C   C39       1.0  0.72135  0.49824  0.50080  1.0000
  C   C40       1.0  0.77744  0.39894  0.50085  1.0000
  C   C41       1.0  0.93967  0.50023  0.50138  1.0000
  C   C42       1.0  0.88539  0.60033  0.50145  1.0000
  C   C43       1.0  0.72197  0.70008  0.50057  1.0000
  C   C44       1.0  0.77625  0.59932  0.50094  1.0000
  C   C45       1.0  0.94169  0.70103  0.50165  1.0000
  C   C46       1.0  0.88850  0.80126  0.50178  1.0000
  C   C47       1.0  0.72396  0.89985  0.50130  1.0000
  C   C48       1.0  0.77837  0.80045  0.50149  1.0000
  C   C49       1.0  0.94614  0.90073  0.50157  1.0000
  N   N1        1.0  0.26986  0.30821  0.50240  1.0000
  N   N2        1.0  0.26741  0.69758  0.49718  1.0000
  N   N3        1.0  0.45298  0.20055  0.50056  1.0000
  N   N4        1.0  0.55846  0.39758  0.49945  1.0000
  N   N5        1.0  0.36897  0.49619  0.50195  1.0000
  N   N6        1.0  0.56012  0.59605  0.49528  1.0000
  N   N7        1.0  0.45011  0.80097  0.49618  1.0000
  Fe  Fe1       1.0  0.41192  0.35141  0.50225  1.0000
  Sc  Sc1       1.0  0.41083  0.63802  0.46122  1.0000
