data_image0
_chemical_formula_structural       C49N7FeTi
_chemical_formula_sum              "C49 N7 Fe1 Ti1"
_cell_length_a       12.9771
_cell_length_b       12.2547
_cell_length_c       19.9772
_cell_angle_alpha    89.8724
_cell_angle_beta     89.8153
_cell_angle_gamma    90.3672

_space_group_name_H-M_alt    "P 1"
_space_group_IT_number       1

loop_
  _space_group_symop_operation_xyz
  'x, y, z'

loop_
  _atom_site_type_symbol
  _atom_site_label
  _atom_site_symmetry_multiplicity
  _atom_site_fract_x
  _atom_site_fract_y
  _atom_site_fract_z
  _atom_site_occupancy
  C   C1        1.0  0.22751  0.00217  0.50205  1.0000
  C   C2        1.0  0.05840  0.10110  0.50080  1.0000
  C   C3        1.0  0.11542  0.00164  0.50172  1.0000
  C   C4        1.0  0.28291  0.10620  0.50252  1.0000
  C   C5        1.0  0.22376  0.20718  0.50409  1.0000
  C   C6        1.0  0.05257  0.30019  0.50010  1.0000
  C   C7        1.0  0.11226  0.20252  0.50173  1.0000
  C   C8        1.0  0.21170  0.40215  0.50790  1.0000
  C   C9        1.0  0.04957  0.50141  0.49991  1.0000
  C   C10       1.0  0.10442  0.40166  0.50205  1.0000
  C   C11       1.0  0.26657  0.50203  0.51791  1.0000
  C   C12       1.0  0.21181  0.60275  0.51170  1.0000
  C   C13       1.0  0.05150  0.70190  0.50080  1.0000
  C   C14       1.0  0.10391  0.60132  0.50253  1.0000
  C   C15       1.0  0.22052  0.79899  0.50654  1.0000
  C   C16       1.0  0.05722  0.90198  0.50095  1.0000
  C   C17       1.0  0.11011  0.80134  0.50318  1.0000
  C   C18       1.0  0.28154  0.89807  0.50220  1.0000
  C   C19       1.0  0.55790  0.99878  0.49710  1.0000
  C   C20       1.0  0.39494  0.10429  0.50129  1.0000
  C   C21       1.0  0.44748  0.99970  0.49868  1.0000
  C   C22       1.0  0.61450  0.09887  0.49726  1.0000
  C   C23       1.0  0.55945  0.19841  0.49854  1.0000
  C   C24       1.0  0.61442  0.30046  0.49663  1.0000
  C   C25       1.0  0.60966  0.49730  0.49385  1.0000
  C   C26       1.0  0.61211  0.69636  0.49234  1.0000
  C   C27       1.0  0.55631  0.79853  0.49370  1.0000
  C   C28       1.0  0.39384  0.89581  0.49837  1.0000
  C   C29       1.0  0.61311  0.89855  0.49563  1.0000
  C   C30       1.0  0.89063  0.00033  0.49819  1.0000
  C   C31       1.0  0.72463  0.09888  0.49676  1.0000
  C   C32       1.0  0.78012  0.99948  0.49704  1.0000
  C   C33       1.0  0.94701  0.10041  0.49901  1.0000
  C   C34       1.0  0.88964  0.19918  0.49761  1.0000
  C   C35       1.0  0.72329  0.29850  0.49572  1.0000
  C   C36       1.0  0.77942  0.19871  0.49652  1.0000
  C   C37       1.0  0.94324  0.29982  0.49773  1.0000
  C   C38       1.0  0.88684  0.39981  0.49619  1.0000
  C   C39       1.0  0.72095  0.49870  0.49406  1.0000
  C   C40       1.0  0.77745  0.39948  0.49512  1.0000
  C   C41       1.0  0.94056  0.50068  0.49674  1.0000
  C   C42       1.0  0.88587  0.60050  0.49566  1.0000
  C   C43       1.0  0.72127  0.69977  0.49390  1.0000
  C   C44       1.0  0.77620  0.59941  0.49401  1.0000
  C   C45       1.0  0.94228  0.70113  0.49734  1.0000
  C   C46       1.0  0.88847  0.80123  0.49715  1.0000
  C   C47       1.0  0.72365  0.89963  0.49615  1.0000
  C   C48       1.0  0.77810  0.80026  0.49569  1.0000
  C   C49       1.0  0.94602  0.90090  0.49871  1.0000
  N   N1        1.0  0.27085  0.30863  0.50773  1.0000
  N   N2        1.0  0.26773  0.69976  0.51312  1.0000
  N   N3        1.0  0.45282  0.20031  0.50219  1.0000
  N   N4        1.0  0.55802  0.39791  0.49698  1.0000
  N   N5        1.0  0.37069  0.49543  0.53149  1.0000
  N   N6        1.0  0.55773  0.59632  0.49012  1.0000
  N   N7        1.0  0.44923  0.79834  0.49378  1.0000
  Fe  Fe1       1.0  0.41300  0.35160  0.51033  1.0000
  Ti  Ti1       1.0  0.39927  0.62813  0.48283  1.0000
