data_image0
_chemical_formula_structural       C48N6FeTi
_chemical_formula_sum              "C48 N6 Fe1 Ti1"
_cell_length_a       12.7518
_cell_length_b       12.314
_cell_length_c       20.2323
_cell_angle_alpha    89.979
_cell_angle_beta     90.0013
_cell_angle_gamma    90.5044

_space_group_name_H-M_alt    "P 1"
_space_group_IT_number       1

loop_
  _space_group_symop_operation_xyz
  'x, y, z'

loop_
  _atom_site_type_symbol
  _atom_site_label
  _atom_site_symmetry_multiplicity
  _atom_site_fract_x
  _atom_site_fract_y
  _atom_site_fract_z
  _atom_site_occupancy
  C   C1        1.0  0.22227  0.00243  0.50001  1.0000
  C   C2        1.0  0.05649  0.10237  0.50008  1.0000
  C   C3        1.0  0.11040  0.00174  0.50005  1.0000
  C   C4        1.0  0.27845  0.10301  0.49992  1.0000
  C   C5        1.0  0.22563  0.20471  0.49994  1.0000
  C   C6        1.0  0.05814  0.30306  0.50006  1.0000
  C   C7        1.0  0.11318  0.20332  0.50005  1.0000
  C   C8        1.0  0.28537  0.30479  0.49979  1.0000
  C   C9        1.0  0.22964  0.40771  0.49994  1.0000
  C   C10       1.0  0.05684  0.50142  0.50002  1.0000
  C   C11       1.0  0.11537  0.40318  0.50002  1.0000
  C   C12       1.0  0.22516  0.59984  0.50004  1.0000
  C   C13       1.0  0.05474  0.70041  0.49999  1.0000
  C   C14       1.0  0.11240  0.60147  0.50001  1.0000
  C   C15       1.0  0.27956  0.70294  0.50005  1.0000
  C   C16       1.0  0.22161  0.80150  0.50003  1.0000
  C   C17       1.0  0.05439  0.90098  0.50003  1.0000
  C   C18       1.0  0.10971  0.80093  0.50000  1.0000
  C   C19       1.0  0.27698  0.90208  0.50002  1.0000
  C   C20       1.0  0.55501  0.99931  0.49994  1.0000
  C   C21       1.0  0.39012  0.10227  0.49984  1.0000
  C   C22       1.0  0.44445  0.00110  0.49994  1.0000
  C   C23       1.0  0.61077  0.10005  0.49989  1.0000
  C   C24       1.0  0.55822  0.20151  0.49973  1.0000
  C   C25       1.0  0.44452  0.20306  0.49966  1.0000
  C   C26       1.0  0.55489  0.79569  0.50001  1.0000
  C   C27       1.0  0.38864  0.90096  0.50000  1.0000
  C   C28       1.0  0.44122  0.79903  0.50003  1.0000
  C   C29       1.0  0.60907  0.89807  0.50000  1.0000
  C   C30       1.0  0.88840  0.00043  0.50007  1.0000
  C   C31       1.0  0.72227  0.10002  0.49999  1.0000
  C   C32       1.0  0.77667  0.99953  0.50004  1.0000
  C   C33       1.0  0.94429  0.10137  0.50010  1.0000
  C   C34       1.0  0.88927  0.20178  0.50008  1.0000
  C   C35       1.0  0.71853  0.30030  0.49989  1.0000
  C   C36       1.0  0.77704  0.20146  0.50002  1.0000
  C   C37       1.0  0.94526  0.30206  0.50007  1.0000
  C   C38       1.0  0.88785  0.40082  0.50001  1.0000
  C   C39       1.0  0.77467  0.40375  0.49995  1.0000
  C   C40       1.0  0.94370  0.50078  0.50000  1.0000
  C   C41       1.0  0.88564  0.59933  0.49997  1.0000
  C   C42       1.0  0.71279  0.69662  0.49998  1.0000
  C   C43       1.0  0.77170  0.59417  0.49996  1.0000
  C   C44       1.0  0.94209  0.69936  0.49997  1.0000
  C   C45       1.0  0.88597  0.79856  0.49999  1.0000
  C   C46       1.0  0.72050  0.89845  0.50001  1.0000
  C   C47       1.0  0.77317  0.79669  0.49999  1.0000
  C   C48       1.0  0.94230  0.89973  0.50003  1.0000
  N   N1        1.0  0.28328  0.50571  0.50000  1.0000
  N   N2        1.0  0.39351  0.30224  0.49950  1.0000
  N   N3        1.0  0.61186  0.29865  0.49970  1.0000
  N   N4        1.0  0.38659  0.70353  0.50006  1.0000
  N   N5        1.0  0.60471  0.69666  0.50000  1.0000
  N   N6        1.0  0.71984  0.49778  0.49993  1.0000
  Fe  Fe1       1.0  0.50172  0.41390  0.49914  1.0000
  Ti  Ti1       1.0  0.46767  0.55094  0.50000  1.0000
