data_image0
_chemical_formula_structural       C50N6FeSc
_chemical_formula_sum              "C50 N6 Fe1 Sc1"
_cell_length_a       12.7166
_cell_length_b       12.5153
_cell_length_c       19.9619
_cell_angle_alpha    90.0015
_cell_angle_beta     90.0086
_cell_angle_gamma    89.5837

_space_group_name_H-M_alt    "P 1"
_space_group_IT_number       1

loop_
  _space_group_symop_operation_xyz
  'x, y, z'

loop_
  _atom_site_type_symbol
  _atom_site_label
  _atom_site_symmetry_multiplicity
  _atom_site_fract_x
  _atom_site_fract_y
  _atom_site_fract_z
  _atom_site_occupancy
  C   C1        1.0  0.22175  0.99805  0.50221  1.0000
  C   C2        1.0  0.05429  0.09873  0.50036  1.0000
  C   C3        1.0  0.11019  0.99889  0.50080  1.0000
  C   C4        1.0  0.27701  0.09547  0.50378  1.0000
  C   C5        1.0  0.22097  0.19380  0.50328  1.0000
  C   C6        1.0  0.05630  0.29899  0.50011  1.0000
  C   C7        1.0  0.10957  0.19748  0.50099  1.0000
  C   C8        1.0  0.27775  0.29006  0.50387  1.0000
  C   C9        1.0  0.06392  0.49770  0.49707  1.0000
  C   C10       1.0  0.11745  0.39492  0.49830  1.0000
  C   C11       1.0  0.05944  0.69840  0.49794  1.0000
  C   C12       1.0  0.11923  0.59999  0.49658  1.0000
  C   C13       1.0  0.27941  0.70227  0.49828  1.0000
  C   C14       1.0  0.22389  0.80076  0.50033  1.0000
  C   C15       1.0  0.05620  0.89894  0.49954  1.0000
  C   C16       1.0  0.11219  0.79948  0.49934  1.0000
  C   C17       1.0  0.27821  0.89939  0.50156  1.0000
  C   C18       1.0  0.55571  0.99959  0.50084  1.0000
  C   C19       1.0  0.38880  0.09658  0.50416  1.0000
  C   C20       1.0  0.44482  0.99815  0.50194  1.0000
  C   C21       1.0  0.60977  0.09881  0.50278  1.0000
  C   C22       1.0  0.55444  0.19766  0.50693  1.0000
  C   C23       1.0  0.44210  0.19548  0.50680  1.0000
  C   C24       1.0  0.55589  0.60699  0.49251  1.0000
  C   C25       1.0  0.39142  0.70231  0.49718  1.0000
  C   C26       1.0  0.61214  0.70418  0.49460  1.0000
  C   C27       1.0  0.55676  0.80291  0.49680  1.0000
  C   C28       1.0  0.38915  0.89974  0.50092  1.0000
  C   C29       1.0  0.44507  0.80091  0.49858  1.0000
  C   C30       1.0  0.61188  0.90066  0.49829  1.0000
  C   C31       1.0  0.88890  0.99979  0.49892  1.0000
  C   C32       1.0  0.72158  0.09982  0.50139  1.0000
  C   C33       1.0  0.77727  0.00020  0.49920  1.0000
  C   C34       1.0  0.94241  0.10005  0.49957  1.0000
  C   C35       1.0  0.88716  0.20106  0.50014  1.0000
  C   C36       1.0  0.71498  0.29980  0.50448  1.0000
  C   C37       1.0  0.77449  0.20109  0.50178  1.0000
  C   C38       1.0  0.94295  0.30071  0.50010  1.0000
  C   C39       1.0  0.88688  0.40063  0.49951  1.0000
  C   C40       1.0  0.71838  0.50410  0.49676  1.0000
  C   C41       1.0  0.77121  0.40130  0.50070  1.0000
  C   C42       1.0  0.94824  0.49842  0.49773  1.0000
  C   C43       1.0  0.89192  0.59849  0.49694  1.0000
  C   C44       1.0  0.72407  0.70106  0.49534  1.0000
  C   C45       1.0  0.77872  0.60016  0.49577  1.0000
  C   C46       1.0  0.94691  0.69831  0.49743  1.0000
  C   C47       1.0  0.89116  0.79897  0.49754  1.0000
  C   C48       1.0  0.72339  0.90005  0.49787  1.0000
  C   C49       1.0  0.77917  0.80011  0.49674  1.0000
  C   C50       1.0  0.94459  0.89934  0.49851  1.0000
  N   N1        1.0  0.22760  0.38637  0.49741  1.0000
  N   N2        1.0  0.22825  0.60534  0.49502  1.0000
  N   N3        1.0  0.38588  0.29172  0.50983  1.0000
  N   N4        1.0  0.60559  0.29579  0.51104  1.0000
  N   N5        1.0  0.60872  0.51144  0.49469  1.0000
  N   N6        1.0  0.44542  0.60321  0.49204  1.0000
  Fe  Fe1       1.0  0.33387  0.49200  0.48015  1.0000
  Sc  Sc1       1.0  0.49085  0.41902  0.53929  1.0000
