data_image0
_chemical_formula_structural       C52N4NiFe
_chemical_formula_sum              "C52 N4 Ni1 Fe1"
_cell_length_a       12.6617
_cell_length_b       12.5378
_cell_length_c       20.0118
_cell_angle_alpha    89.9943
_cell_angle_beta     90.0331
_cell_angle_gamma    89.8995

_space_group_name_H-M_alt    "P 1"
_space_group_IT_number       1

loop_
  _space_group_symop_operation_xyz
  'x, y, z'

loop_
  _atom_site_type_symbol
  _atom_site_label
  _atom_site_symmetry_multiplicity
  _atom_site_fract_x
  _atom_site_fract_y
  _atom_site_fract_z
  _atom_site_occupancy
  C   C1        1.0  0.22201  0.99888  0.50000  1.0000
  C   C2        1.0  0.05489  0.09918  0.49997  1.0000
  C   C3        1.0  0.11032  0.99953  0.49998  1.0000
  C   C4        1.0  0.27768  0.09718  0.50004  1.0000
  C   C5        1.0  0.22213  0.19571  0.50007  1.0000
  C   C6        1.0  0.05689  0.29928  0.49998  1.0000
  C   C7        1.0  0.11049  0.19831  0.49999  1.0000
  C   C8        1.0  0.27893  0.29331  0.50023  1.0000
  C   C9        1.0  0.06266  0.49870  0.49996  1.0000
  C   C10       1.0  0.11839  0.39657  0.49999  1.0000
  C   C11       1.0  0.05786  0.69954  0.50001  1.0000
  C   C12       1.0  0.11784  0.60124  0.50001  1.0000
  C   C13       1.0  0.27631  0.70367  0.50008  1.0000
  C   C14       1.0  0.22198  0.80182  0.50008  1.0000
  C   C15       1.0  0.05550  0.89985  0.49998  1.0000
  C   C16       1.0  0.11068  0.80035  0.50004  1.0000
  C   C17       1.0  0.27758  0.90047  0.50004  1.0000
  C   C18       1.0  0.55616  0.99825  0.49986  1.0000
  C   C19       1.0  0.38928  0.09695  0.50003  1.0000
  C   C20       1.0  0.44465  0.99817  0.49993  1.0000
  C   C21       1.0  0.61172  0.09712  0.49987  1.0000
  C   C22       1.0  0.55710  0.19503  0.50008  1.0000
  C   C23       1.0  0.44415  0.19589  0.50020  1.0000
  C   C24       1.0  0.55474  0.60539  0.50017  1.0000
  C   C25       1.0  0.38966  0.70168  0.50008  1.0000
  C   C26       1.0  0.61143  0.70310  0.50000  1.0000
  C   C27       1.0  0.55598  0.80145  0.49994  1.0000
  C   C28       1.0  0.38905  0.89988  0.49999  1.0000
  C   C29       1.0  0.44441  0.80090  0.50000  1.0000
  C   C30       1.0  0.61170  0.89997  0.49989  1.0000
  C   C31       1.0  0.88921  0.99970  0.49998  1.0000
  C   C32       1.0  0.72300  0.09890  0.49990  1.0000
  C   C33       1.0  0.77806  0.99939  0.49994  1.0000
  C   C34       1.0  0.94320  0.10015  0.49998  1.0000
  C   C35       1.0  0.88813  0.20076  0.49997  1.0000
  C   C36       1.0  0.71557  0.29835  0.50009  1.0000
  C   C37       1.0  0.77568  0.20009  0.49996  1.0000
  C   C38       1.0  0.94380  0.30073  0.49998  1.0000
  C   C39       1.0  0.88668  0.40031  0.50001  1.0000
  C   C40       1.0  0.71714  0.50281  0.50020  1.0000
  C   C41       1.0  0.77176  0.40039  0.50012  1.0000
  C   C42       1.0  0.94791  0.49874  0.49997  1.0000
  C   C43       1.0  0.89071  0.59857  0.49995  1.0000
  C   C44       1.0  0.72338  0.70072  0.49998  1.0000
  C   C45       1.0  0.77796  0.60012  0.50001  1.0000
  C   C46       1.0  0.94569  0.69877  0.49996  1.0000
  C   C47       1.0  0.89037  0.79912  0.49995  1.0000
  C   C48       1.0  0.72327  0.89961  0.49992  1.0000
  C   C49       1.0  0.77868  0.79990  0.49994  1.0000
  C   C50       1.0  0.94438  0.89961  0.49997  1.0000
  C   C51       1.0  0.39125  0.29562  0.50047  1.0000
  C   C52       1.0  0.44211  0.60143  0.50014  1.0000
  N   N1        1.0  0.22673  0.39022  0.50009  1.0000
  N   N2        1.0  0.22598  0.60727  0.50002  1.0000
  N   N3        1.0  0.60652  0.29243  0.50025  1.0000
  N   N4        1.0  0.60940  0.50928  0.50042  1.0000
  Ni  Ni1       1.0  0.33494  0.49509  0.50006  1.0000
  Fe  Fe1       1.0  0.49261  0.41019  0.50080  1.0000
