data_image0
_chemical_formula_structural       C53N5FeSc
_chemical_formula_sum              "C53 N5 Fe1 Sc1"
_cell_length_a       12.8643
_cell_length_b       12.4063
_cell_length_c       19.9086
_cell_angle_alpha    90.4979
_cell_angle_beta     89.2591
_cell_angle_gamma    90.4778

_space_group_name_H-M_alt    "P 1"
_space_group_IT_number       1

loop_
  _space_group_symop_operation_xyz
  'x, y, z'

loop_
  _atom_site_type_symbol
  _atom_site_label
  _atom_site_symmetry_multiplicity
  _atom_site_fract_x
  _atom_site_fract_y
  _atom_site_fract_z
  _atom_site_occupancy
  C   C1        1.0  0.22148  0.00058  0.49220  1.0000
  C   C2        1.0  0.05668  0.10050  0.48802  1.0000
  C   C3        1.0  0.11063  0.00024  0.48999  1.0000
  C   C4        1.0  0.27732  0.10162  0.49153  1.0000
  C   C5        1.0  0.22406  0.20340  0.49427  1.0000
  C   C6        1.0  0.05590  0.30043  0.49205  1.0000
  C   C7        1.0  0.11235  0.20151  0.49113  1.0000
  C   C8        1.0  0.28066  0.30465  0.50178  1.0000
  C   C9        1.0  0.22018  0.40490  0.50533  1.0000
  C   C10       1.0  0.05256  0.50092  0.49936  1.0000
  C   C11       1.0  0.10967  0.40148  0.49810  1.0000
  C   C12       1.0  0.21689  0.60094  0.51255  1.0000
  C   C13       1.0  0.05185  0.70029  0.49857  1.0000
  C   C14       1.0  0.10686  0.60141  0.50299  1.0000
  C   C15       1.0  0.27361  0.70229  0.51644  1.0000
  C   C16       1.0  0.21978  0.80028  0.50200  1.0000
  C   C17       1.0  0.05461  0.89981  0.49078  1.0000
  C   C18       1.0  0.10877  0.80017  0.49621  1.0000
  C   C19       1.0  0.27592  0.90082  0.49746  1.0000
  C   C20       1.0  0.55415  0.99836  0.48660  1.0000
  C   C21       1.0  0.38794  0.09938  0.48875  1.0000
  C   C22       1.0  0.44313  0.99960  0.48898  1.0000
  C   C23       1.0  0.61116  0.09725  0.48294  1.0000
  C   C24       1.0  0.55614  0.19586  0.48634  1.0000
  C   C25       1.0  0.39359  0.29831  0.50321  1.0000
  C   C26       1.0  0.44492  0.19835  0.49086  1.0000
  C   C27       1.0  0.61368  0.29360  0.48979  1.0000
  C   C28       1.0  0.56027  0.38879  0.50705  1.0000
  C   C29       1.0  0.38144  0.71296  0.53744  1.0000
  C   C30       1.0  0.55444  0.80263  0.50758  1.0000
  C   C31       1.0  0.38750  0.90060  0.49791  1.0000
  C   C32       1.0  0.44238  0.80423  0.51275  1.0000
  C   C33       1.0  0.60939  0.89991  0.49223  1.0000
  C   C34       1.0  0.88907  0.99893  0.48519  1.0000
  C   C35       1.0  0.72245  0.09770  0.48221  1.0000
  C   C36       1.0  0.77760  0.99834  0.48437  1.0000
  C   C37       1.0  0.94548  0.09940  0.48515  1.0000
  C   C38       1.0  0.89017  0.19868  0.48496  1.0000
  C   C39       1.0  0.72402  0.29603  0.48758  1.0000
  C   C40       1.0  0.77909  0.19736  0.48328  1.0000
  C   C41       1.0  0.94484  0.29957  0.48894  1.0000
  C   C42       1.0  0.88854  0.39879  0.49259  1.0000
  C   C43       1.0  0.71914  0.49281  0.50520  1.0000
  C   C44       1.0  0.77789  0.39689  0.49381  1.0000
  C   C45       1.0  0.94129  0.50023  0.49740  1.0000
  C   C46       1.0  0.88355  0.59916  0.50022  1.0000
  C   C47       1.0  0.71702  0.70233  0.50559  1.0000
  C   C48       1.0  0.77029  0.59831  0.50553  1.0000
  C   C49       1.0  0.94042  0.69916  0.49715  1.0000
  C   C50       1.0  0.88660  0.79922  0.49283  1.0000
  C   C51       1.0  0.72091  0.89929  0.48981  1.0000
  C   C52       1.0  0.77549  0.79967  0.49502  1.0000
  C   C53       1.0  0.94329  0.89914  0.48874  1.0000
  N   N1        1.0  0.26739  0.50380  0.51667  1.0000
  N   N2        1.0  0.45513  0.38767  0.51896  1.0000
  N   N3        1.0  0.61314  0.48345  0.51776  1.0000
  N   N4        1.0  0.42668  0.64752  0.58202  1.0000
  N   N5        1.0  0.61062  0.70946  0.51790  1.0000
  Fe  Fe1       1.0  0.39325  0.50339  0.56788  1.0000
  Sc  Sc1       1.0  0.57173  0.59890  0.59171  1.0000
