data_image0
_chemical_formula_structural       C49N6Fe2
_chemical_formula_sum              "C49 N6 Fe2"
_cell_length_a       12.8666
_cell_length_b       12.2696
_cell_length_c       20.1264
_cell_angle_alpha    89.9681
_cell_angle_beta     89.9268
_cell_angle_gamma    89.0375

_space_group_name_H-M_alt    "P 1"
_space_group_IT_number       1

loop_
  _space_group_symop_operation_xyz
  'x, y, z'

loop_
  _atom_site_type_symbol
  _atom_site_label
  _atom_site_symmetry_multiplicity
  _atom_site_fract_x
  _atom_site_fract_y
  _atom_site_fract_z
  _atom_site_occupancy
  C   C1        1.0  0.22131  0.99890  0.50007  1.0000
  C   C2        1.0  0.05248  0.10070  0.50006  1.0000
  C   C3        1.0  0.10996  0.00028  0.50005  1.0000
  C   C4        1.0  0.27517  0.09912  0.49996  1.0000
  C   C5        1.0  0.21806  0.19931  0.49987  1.0000
  C   C6        1.0  0.05151  0.30088  0.50002  1.0000
  C   C7        1.0  0.10700  0.20035  0.50002  1.0000
  C   C8        1.0  0.27280  0.29795  0.49959  1.0000
  C   C9        1.0  0.21771  0.39937  0.49957  1.0000
  C   C10       1.0  0.05495  0.50145  0.49994  1.0000
  C   C11       1.0  0.10830  0.39988  0.49984  1.0000
  C   C12       1.0  0.22602  0.59463  0.49975  1.0000
  C   C13       1.0  0.05807  0.70068  0.49996  1.0000
  C   C14       1.0  0.11438  0.59943  0.49989  1.0000
  C   C15       1.0  0.28488  0.69614  0.49991  1.0000
  C   C16       1.0  0.22508  0.79693  0.50001  1.0000
  C   C17       1.0  0.05584  0.90056  0.49999  1.0000
  C   C18       1.0  0.11331  0.79961  0.49998  1.0000
  C   C19       1.0  0.27865  0.89792  0.50007  1.0000
  C   C20       1.0  0.55351  0.00189  0.49997  1.0000
  C   C21       1.0  0.38585  0.10160  0.49988  1.0000
  C   C22       1.0  0.44313  0.00024  0.49999  1.0000
  C   C23       1.0  0.60649  0.10467  0.49993  1.0000
  C   C24       1.0  0.54941  0.20624  0.49979  1.0000
  C   C25       1.0  0.43757  0.20535  0.49967  1.0000
  C   C26       1.0  0.60483  0.30871  0.49994  1.0000
  C   C27       1.0  0.55790  0.79636  0.50011  1.0000
  C   C28       1.0  0.38970  0.89755  0.50006  1.0000
  C   C29       1.0  0.44390  0.79314  0.50006  1.0000
  C   C30       1.0  0.60970  0.90012  0.50003  1.0000
  C   C31       1.0  0.88658  0.00291  0.49997  1.0000
  C   C32       1.0  0.71805  0.10565  0.50002  1.0000
  C   C33       1.0  0.77497  0.00439  0.49996  1.0000
  C   C34       1.0  0.94111  0.10267  0.50006  1.0000
  C   C35       1.0  0.88455  0.20386  0.50016  1.0000
  C   C36       1.0  0.71735  0.30910  0.50027  1.0000
  C   C37       1.0  0.77291  0.20671  0.50017  1.0000
  C   C38       1.0  0.94048  0.30300  0.50016  1.0000
  C   C39       1.0  0.88622  0.40486  0.50024  1.0000
  C   C40       1.0  0.77475  0.40967  0.50040  1.0000
  C   C41       1.0  0.94476  0.50295  0.50014  1.0000
  C   C42       1.0  0.89041  0.60421  0.50016  1.0000
  C   C43       1.0  0.72344  0.70519  0.50021  1.0000
  C   C44       1.0  0.78089  0.60450  0.50035  1.0000
  C   C45       1.0  0.94684  0.70286  0.50001  1.0000
  C   C46       1.0  0.89007  0.80286  0.49997  1.0000
  C   C47       1.0  0.72102  0.90363  0.49997  1.0000
  C   C48       1.0  0.77868  0.80385  0.50003  1.0000
  C   C49       1.0  0.94432  0.90255  0.49994  1.0000
  N   N1        1.0  0.27643  0.49371  0.49944  1.0000
  N   N2        1.0  0.38005  0.30168  0.49940  1.0000
  N   N3        1.0  0.55125  0.40319  0.49971  1.0000
  N   N4        1.0  0.39204  0.69552  0.50000  1.0000
  N   N5        1.0  0.61583  0.70051  0.50018  1.0000
  N   N6        1.0  0.72472  0.50979  0.50060  1.0000
  Fe  Fe1       1.0  0.41919  0.45338  0.49898  1.0000
  Fe  Fe2       1.0  0.57613  0.54672  0.50023  1.0000
