data_image0
_chemical_formula_structural       C54N4FeCu
_chemical_formula_sum              "C54 N4 Fe1 Cu1"
_cell_length_a       12.9098
_cell_length_b       12.3173
_cell_length_c       20.0692
_cell_angle_alpha    91.0142
_cell_angle_beta     95.2417
_cell_angle_gamma    90.9774

_space_group_name_H-M_alt    "P 1"
_space_group_IT_number       1

loop_
  _space_group_symop_operation_xyz
  'x, y, z'

loop_
  _atom_site_type_symbol
  _atom_site_label
  _atom_site_symmetry_multiplicity
  _atom_site_fract_x
  _atom_site_fract_y
  _atom_site_fract_z
  _atom_site_occupancy
  C   C1        1.0  0.22276  0.00321  0.50024  1.0000
  C   C2        1.0  0.05764  0.10199  0.49919  1.0000
  C   C3        1.0  0.11166  0.00222  0.49994  1.0000
  C   C4        1.0  0.27983  0.10387  0.50003  1.0000
  C   C5        1.0  0.22681  0.20603  0.50015  1.0000
  C   C6        1.0  0.05919  0.30208  0.49824  1.0000
  C   C7        1.0  0.11513  0.20306  0.49932  1.0000
  C   C8        1.0  0.28421  0.30871  0.50067  1.0000
  C   C9        1.0  0.22640  0.40926  0.50070  1.0000
  C   C10       1.0  0.05540  0.50147  0.49829  1.0000
  C   C11       1.0  0.11443  0.40381  0.49884  1.0000
  C   C12       1.0  0.21742  0.60413  0.50049  1.0000
  C   C13       1.0  0.05304  0.70253  0.49897  1.0000
  C   C14       1.0  0.10850  0.60320  0.49917  1.0000
  C   C15       1.0  0.27291  0.70461  0.50084  1.0000
  C   C16       1.0  0.21897  0.80336  0.50021  1.0000
  C   C17       1.0  0.05410  0.90205  0.49955  1.0000
  C   C18       1.0  0.10851  0.80267  0.49966  1.0000
  C   C19       1.0  0.27671  0.90263  0.50031  1.0000
  C   C20       1.0  0.55488  0.99527  0.49821  1.0000
  C   C21       1.0  0.39037  0.10073  0.49913  1.0000
  C   C22       1.0  0.44434  0.99842  0.49898  1.0000
  C   C23       1.0  0.61181  0.09590  0.49705  1.0000
  C   C24       1.0  0.55784  0.19645  0.49680  1.0000
  C   C25       1.0  0.39630  0.30542  0.49990  1.0000
  C   C26       1.0  0.44748  0.20131  0.49832  1.0000
  C   C27       1.0  0.61533  0.29569  0.49532  1.0000
  C   C28       1.0  0.56165  0.39451  0.49641  1.0000
  C   C29       1.0  0.61702  0.49496  0.49592  1.0000
  C   C30       1.0  0.60849  0.68992  0.49849  1.0000
  C   C31       1.0  0.55086  0.79051  0.49957  1.0000
  C   C32       1.0  0.38724  0.89782  0.49990  1.0000
  C   C33       1.0  0.43883  0.79382  0.50080  1.0000
  C   C34       1.0  0.60798  0.89311  0.49846  1.0000
  C   C35       1.0  0.88831  0.99934  0.49809  1.0000
  C   C36       1.0  0.72281  0.09687  0.49663  1.0000
  C   C37       1.0  0.77683  0.99711  0.49749  1.0000
  C   C38       1.0  0.94609  0.09979  0.49805  1.0000
  C   C39       1.0  0.89117  0.19900  0.49669  1.0000
  C   C40       1.0  0.72562  0.29632  0.49467  1.0000
  C   C41       1.0  0.78019  0.19699  0.49574  1.0000
  C   C42       1.0  0.94777  0.29980  0.49679  1.0000
  C   C43       1.0  0.89133  0.39840  0.49584  1.0000
  C   C44       1.0  0.72562  0.49581  0.49491  1.0000
  C   C45       1.0  0.78103  0.39647  0.49463  1.0000
  C   C46       1.0  0.94533  0.49976  0.49686  1.0000
  C   C47       1.0  0.88876  0.59923  0.49688  1.0000
  C   C48       1.0  0.71994  0.69527  0.49701  1.0000
  C   C49       1.0  0.77877  0.59755  0.49609  1.0000
  C   C50       1.0  0.94278  0.70059  0.49808  1.0000
  C   C51       1.0  0.88648  0.79923  0.49812  1.0000
  C   C52       1.0  0.71941  0.89607  0.49783  1.0000
  C   C53       1.0  0.77515  0.79700  0.49761  1.0000
  C   C54       1.0  0.94314  0.90007  0.49872  1.0000
  N   N1        1.0  0.27596  0.51052  0.50212  1.0000
  N   N2        1.0  0.45556  0.40067  0.50043  1.0000
  N   N3        1.0  0.55927  0.58869  0.49912  1.0000
  N   N4        1.0  0.37998  0.69860  0.50267  1.0000
  Fe  Fe1       1.0  0.41910  0.54978  0.50911  1.0000
  Cu  Cu1       1.0  0.44146  0.55200  0.62578  1.0000
