data_image0
_chemical_formula_structural       C54N4FeMn
_chemical_formula_sum              "C54 N4 Fe1 Mn1"
_cell_length_a       12.9
_cell_length_b       12.3587
_cell_length_c       19.9317
_cell_angle_alpha    91.1286
_cell_angle_beta     90.1073
_cell_angle_gamma    90.5271

_space_group_name_H-M_alt    "P 1"
_space_group_IT_number       1

loop_
  _space_group_symop_operation_xyz
  'x, y, z'

loop_
  _atom_site_type_symbol
  _atom_site_label
  _atom_site_symmetry_multiplicity
  _atom_site_fract_x
  _atom_site_fract_y
  _atom_site_fract_z
  _atom_site_occupancy
  C   C1        1.0  0.22084  0.00283  0.49546  1.0000
  C   C2        1.0  0.05540  0.10191  0.49351  1.0000
  C   C3        1.0  0.10992  0.00202  0.49388  1.0000
  C   C4        1.0  0.27742  0.10311  0.49679  1.0000
  C   C5        1.0  0.22354  0.20473  0.49871  1.0000
  C   C6        1.0  0.05562  0.30147  0.49477  1.0000
  C   C7        1.0  0.11199  0.20243  0.49558  1.0000
  C   C8        1.0  0.28017  0.30625  0.50454  1.0000
  C   C9        1.0  0.22045  0.40672  0.50589  1.0000
  C   C10       1.0  0.05400  0.50187  0.49693  1.0000
  C   C11       1.0  0.11006  0.40239  0.49790  1.0000
  C   C12       1.0  0.21828  0.60239  0.50806  1.0000
  C   C13       1.0  0.05322  0.70210  0.49473  1.0000
  C   C14       1.0  0.10891  0.60289  0.49880  1.0000
  C   C15       1.0  0.27493  0.70441  0.50772  1.0000
  C   C16       1.0  0.21899  0.80245  0.49880  1.0000
  C   C17       1.0  0.05370  0.90186  0.49295  1.0000
  C   C18       1.0  0.10851  0.80215  0.49485  1.0000
  C   C19       1.0  0.27537  0.90255  0.49744  1.0000
  C   C20       1.0  0.55411  0.99802  0.49667  1.0000
  C   C21       1.0  0.38834  0.10080  0.49659  1.0000
  C   C22       1.0  0.44316  0.00027  0.49641  1.0000
  C   C23       1.0  0.61069  0.09827  0.49576  1.0000
  C   C24       1.0  0.55621  0.19868  0.49818  1.0000
  C   C25       1.0  0.39346  0.30179  0.50656  1.0000
  C   C26       1.0  0.44539  0.20006  0.49917  1.0000
  C   C27       1.0  0.61259  0.29895  0.49957  1.0000
  C   C28       1.0  0.55706  0.39764  0.50863  1.0000
  C   C29       1.0  0.61328  0.49998  0.50786  1.0000
  C   C30       1.0  0.61094  0.69467  0.50476  1.0000
  C   C31       1.0  0.55141  0.79528  0.50366  1.0000
  C   C32       1.0  0.38615  0.90114  0.49846  1.0000
  C   C33       1.0  0.43802  0.79958  0.50529  1.0000
  C   C34       1.0  0.60796  0.89644  0.49826  1.0000
  C   C35       1.0  0.88747  0.00026  0.49218  1.0000
  C   C36       1.0  0.72160  0.09894  0.49410  1.0000
  C   C37       1.0  0.77608  0.99899  0.49335  1.0000
  C   C38       1.0  0.94401  0.10057  0.49236  1.0000
  C   C39       1.0  0.88868  0.20005  0.49256  1.0000
  C   C40       1.0  0.72306  0.29893  0.49542  1.0000
  C   C41       1.0  0.77779  0.19907  0.49341  1.0000
  C   C42       1.0  0.94459  0.30042  0.49309  1.0000
  C   C43       1.0  0.88898  0.39999  0.49363  1.0000
  C   C44       1.0  0.72274  0.49844  0.49879  1.0000
  C   C45       1.0  0.77837  0.39895  0.49523  1.0000
  C   C46       1.0  0.94379  0.50071  0.49438  1.0000
  C   C47       1.0  0.88782  0.60029  0.49409  1.0000
  C   C48       1.0  0.72144  0.69874  0.49716  1.0000
  C   C49       1.0  0.77758  0.59929  0.49645  1.0000
  C   C50       1.0  0.94259  0.70091  0.49307  1.0000
  C   C51       1.0  0.88693  0.80042  0.49245  1.0000
  C   C52       1.0  0.71951  0.89859  0.49512  1.0000
  C   C53       1.0  0.77589  0.79946  0.49413  1.0000
  C   C54       1.0  0.94282  0.90078  0.49208  1.0000
  N   N1        1.0  0.26857  0.50558  0.51738  1.0000
  N   N2        1.0  0.45140  0.39455  0.51803  1.0000
  N   N3        1.0  0.56237  0.59696  0.51550  1.0000
  N   N4        1.0  0.38065  0.70724  0.51572  1.0000
  Fe  Fe1       1.0  0.36927  0.47006  0.58838  1.0000
  Mn  Mn1       1.0  0.46146  0.63544  0.59268  1.0000
