data_image0
_chemical_formula_structural       C50N6Fe2
_chemical_formula_sum              "C50 N6 Fe2"
_cell_length_a       12.6704
_cell_length_b       12.5503
_cell_length_c       19.9784
_cell_angle_alpha    89.9993
_cell_angle_beta     90.0412
_cell_angle_gamma    89.7953

_space_group_name_H-M_alt    "P 1"
_space_group_IT_number       1

loop_
  _space_group_symop_operation_xyz
  'x, y, z'

loop_
  _atom_site_type_symbol
  _atom_site_label
  _atom_site_symmetry_multiplicity
  _atom_site_fract_x
  _atom_site_fract_y
  _atom_site_fract_z
  _atom_site_occupancy
  C   C1        1.0  0.22146  0.99877  0.50027  1.0000
  C   C2        1.0  0.05498  0.09958  0.49995  1.0000
  C   C3        1.0  0.11001  0.99950  0.50009  1.0000
  C   C4        1.0  0.27720  0.09625  0.50045  1.0000
  C   C5        1.0  0.22268  0.19497  0.50036  1.0000
  C   C6        1.0  0.05719  0.29984  0.49990  1.0000
  C   C7        1.0  0.11071  0.19849  0.49993  1.0000
  C   C8        1.0  0.28114  0.29117  0.50033  1.0000
  C   C9        1.0  0.06411  0.49797  0.49988  1.0000
  C   C10       1.0  0.11915  0.39601  0.49942  1.0000
  C   C11       1.0  0.05849  0.69881  0.50028  1.0000
  C   C12       1.0  0.11901  0.60068  0.50044  1.0000
  C   C13       1.0  0.27821  0.70425  0.50065  1.0000
  C   C14       1.0  0.22284  0.80198  0.50065  1.0000
  C   C15       1.0  0.05566  0.89947  0.50008  1.0000
  C   C16       1.0  0.11113  0.80002  0.50040  1.0000
  C   C17       1.0  0.27758  0.90050  0.50035  1.0000
  C   C18       1.0  0.55600  0.99868  0.49958  1.0000
  C   C19       1.0  0.38885  0.09636  0.50016  1.0000
  C   C20       1.0  0.44485  0.99839  0.49984  1.0000
  C   C21       1.0  0.61076  0.09721  0.49934  1.0000
  C   C22       1.0  0.55541  0.19494  0.49954  1.0000
  C   C23       1.0  0.44295  0.19436  0.50040  1.0000
  C   C24       1.0  0.55260  0.60798  0.50005  1.0000
  C   C25       1.0  0.39069  0.70480  0.49986  1.0000
  C   C26       1.0  0.61102  0.70415  0.49981  1.0000
  C   C27       1.0  0.55645  0.80286  0.49958  1.0000
  C   C28       1.0  0.38874  0.90073  0.50009  1.0000
  C   C29       1.0  0.44479  0.80276  0.49991  1.0000
  C   C30       1.0  0.61213  0.90040  0.49965  1.0000
  C   C31       1.0  0.88928  0.99987  0.49992  1.0000
  C   C32       1.0  0.72247  0.09916  0.49953  1.0000
  C   C33       1.0  0.77791  0.99971  0.49978  1.0000
  C   C34       1.0  0.94301  0.10040  0.49996  1.0000
  C   C35       1.0  0.88783  0.20103  0.49996  1.0000
  C   C36       1.0  0.71465  0.29852  0.49970  1.0000
  C   C37       1.0  0.77516  0.20036  0.49970  1.0000
  C   C38       1.0  0.94341  0.30119  0.50002  1.0000
  C   C39       1.0  0.88597  0.40074  0.50005  1.0000
  C   C40       1.0  0.71461  0.50317  0.50082  1.0000
  C   C41       1.0  0.76963  0.40122  0.50025  1.0000
  C   C42       1.0  0.94777  0.49832  0.49998  1.0000
  C   C43       1.0  0.89034  0.59791  0.49996  1.0000
  C   C44       1.0  0.72299  0.70065  0.50013  1.0000
  C   C45       1.0  0.77658  0.59932  0.50019  1.0000
  C   C46       1.0  0.94584  0.69811  0.49995  1.0000
  C   C47       1.0  0.89063  0.79878  0.49991  1.0000
  C   C48       1.0  0.72359  0.89965  0.49980  1.0000
  C   C49       1.0  0.77867  0.79958  0.49996  1.0000
  C   C50       1.0  0.94430  0.89934  0.49991  1.0000
  N   N1        1.0  0.23014  0.38802  0.49811  1.0000
  N   N2        1.0  0.22797  0.60705  0.50065  1.0000
  N   N3        1.0  0.39018  0.29138  0.50180  1.0000
  N   N4        1.0  0.60568  0.29212  0.49964  1.0000
  N   N5        1.0  0.60360  0.51112  0.50235  1.0000
  N   N6        1.0  0.44356  0.60783  0.49867  1.0000
  Fe  Fe1       1.0  0.33690  0.49483  0.49413  1.0000
  Fe  Fe2       1.0  0.49685  0.40437  0.50643  1.0000
