data_image0
_chemical_formula_structural       C54N2FeCr
_chemical_formula_sum              "C54 N2 Fe1 Cr1"
_cell_length_a       12.6979
_cell_length_b       12.5615
_cell_length_c       19.9177
_cell_angle_alpha    89.9981
_cell_angle_beta     90.0397
_cell_angle_gamma    89.6418

_space_group_name_H-M_alt    "P 1"
_space_group_IT_number       1

loop_
  _space_group_symop_operation_xyz
  'x, y, z'

loop_
  _atom_site_type_symbol
  _atom_site_label
  _atom_site_symmetry_multiplicity
  _atom_site_fract_x
  _atom_site_fract_y
  _atom_site_fract_z
  _atom_site_occupancy
  C   C1        1.0  0.22212  0.99739  0.49995  1.0000
  C   C2        1.0  0.05407  0.09792  0.49995  1.0000
  C   C3        1.0  0.11048  0.99822  0.49997  1.0000
  C   C4        1.0  0.27675  0.09637  0.49997  1.0000
  C   C5        1.0  0.21980  0.19405  0.50005  1.0000
  C   C6        1.0  0.05262  0.29744  0.50003  1.0000
  C   C7        1.0  0.10841  0.19700  0.49999  1.0000
  C   C8        1.0  0.27488  0.29242  0.50035  1.0000
  C   C9        1.0  0.05632  0.49808  0.50000  1.0000
  C   C10       1.0  0.10915  0.39594  0.50013  1.0000
  C   C11       1.0  0.05897  0.69812  0.49999  1.0000
  C   C12       1.0  0.11607  0.59745  0.49998  1.0000
  C   C13       1.0  0.27962  0.70023  0.50004  1.0000
  C   C14       1.0  0.22397  0.79916  0.50002  1.0000
  C   C15       1.0  0.05656  0.89855  0.50000  1.0000
  C   C16       1.0  0.11247  0.79844  0.50001  1.0000
  C   C17       1.0  0.27810  0.89885  0.49996  1.0000
  C   C18       1.0  0.55574  0.99993  0.49985  1.0000
  C   C19       1.0  0.38841  0.09832  0.49997  1.0000
  C   C20       1.0  0.44411  0.99913  0.49988  1.0000
  C   C21       1.0  0.61071  0.09874  0.49989  1.0000
  C   C22       1.0  0.55605  0.19740  0.50011  1.0000
  C   C23       1.0  0.44242  0.19903  0.50015  1.0000
  C   C24       1.0  0.55952  0.60865  0.50006  1.0000
  C   C25       1.0  0.39349  0.69982  0.50005  1.0000
  C   C26       1.0  0.61436  0.70628  0.49993  1.0000
  C   C27       1.0  0.55749  0.80340  0.49989  1.0000
  C   C28       1.0  0.38962  0.89969  0.49991  1.0000
  C   C29       1.0  0.44623  0.80071  0.49994  1.0000
  C   C30       1.0  0.61231  0.90199  0.49987  1.0000
  C   C31       1.0  0.88927  0.99964  0.49997  1.0000
  C   C32       1.0  0.72201  0.09969  0.49992  1.0000
  C   C33       1.0  0.77808  0.00041  0.49993  1.0000
  C   C34       1.0  0.94263  0.09935  0.49994  1.0000
  C   C35       1.0  0.88651  0.19974  0.49992  1.0000
  C   C36       1.0  0.71597  0.29925  0.50017  1.0000
  C   C37       1.0  0.77483  0.20020  0.49996  1.0000
  C   C38       1.0  0.94102  0.29915  0.49996  1.0000
  C   C39       1.0  0.88527  0.39973  0.50001  1.0000
  C   C40       1.0  0.72152  0.50554  0.50011  1.0000
  C   C41       1.0  0.77225  0.40078  0.50013  1.0000
  C   C42       1.0  0.94459  0.49907  0.49996  1.0000
  C   C43       1.0  0.89101  0.60058  0.49992  1.0000
  C   C44       1.0  0.72535  0.70342  0.49993  1.0000
  C   C45       1.0  0.78014  0.60306  0.49991  1.0000
  C   C46       1.0  0.94702  0.69950  0.49997  1.0000
  C   C47       1.0  0.89150  0.80000  0.49998  1.0000
  C   C48       1.0  0.72372  0.90124  0.49992  1.0000
  C   C49       1.0  0.78015  0.80183  0.49995  1.0000
  C   C50       1.0  0.94541  0.89965  0.50000  1.0000
  C   C51       1.0  0.21829  0.39054  0.50031  1.0000
  C   C52       1.0  0.22820  0.60021  0.49998  1.0000
  C   C53       1.0  0.38670  0.29806  0.50049  1.0000
  C   C54       1.0  0.44853  0.60049  0.50011  1.0000
  N   N1        1.0  0.60743  0.29358  0.50043  1.0000
  N   N2        1.0  0.61645  0.51393  0.50035  1.0000
  Fe  Fe1       1.0  0.32928  0.48243  0.49971  1.0000
  Cr  Cr1       1.0  0.50232  0.41581  0.50166  1.0000
