data_image0
_chemical_formula_structural       C53N5FeZn
_chemical_formula_sum              "C53 N5 Fe1 Zn1"
_cell_length_a       12.81
_cell_length_b       12.4
_cell_length_c       20
_cell_angle_alpha    90
_cell_angle_beta     90
_cell_angle_gamma    90

_space_group_name_H-M_alt    "P 1"
_space_group_IT_number       1

loop_
  _space_group_symop_operation_xyz
  'x, y, z'

loop_
  _atom_site_type_symbol
  _atom_site_label
  _atom_site_symmetry_multiplicity
  _atom_site_fract_x
  _atom_site_fract_y
  _atom_site_fract_z
  _atom_site_occupancy
  C   C1        1.0  0.22265  0.00020  0.49840  1.0000
  C   C2        1.0  0.05741  0.10060  0.50161  1.0000
  C   C3        1.0  0.11120  0.00009  0.50002  1.0000
  C   C4        1.0  0.27824  0.10129  0.50078  1.0000
  C   C5        1.0  0.22490  0.20341  0.50159  1.0000
  C   C6        1.0  0.05693  0.30103  0.50245  1.0000
  C   C7        1.0  0.11305  0.20161  0.50164  1.0000
  C   C8        1.0  0.28143  0.30485  0.50213  1.0000
  C   C9        1.0  0.22342  0.40587  0.49934  1.0000
  C   C10       1.0  0.05265  0.50081  0.50137  1.0000
  C   C11       1.0  0.11127  0.40224  0.50099  1.0000
  C   C12       1.0  0.21730  0.60118  0.49278  1.0000
  C   C13       1.0  0.05151  0.70032  0.49965  1.0000
  C   C14       1.0  0.10699  0.60081  0.49828  1.0000
  C   C15       1.0  0.27260  0.70047  0.48691  1.0000
  C   C16       1.0  0.21936  0.79983  0.49323  1.0000
  C   C17       1.0  0.05449  0.90032  0.50045  1.0000
  C   C18       1.0  0.10815  0.79992  0.49820  1.0000
  C   C19       1.0  0.27684  0.89998  0.49468  1.0000
  C   C20       1.0  0.55519  0.99851  0.50066  1.0000
  C   C21       1.0  0.38894  0.09890  0.50180  1.0000
  C   C22       1.0  0.44411  0.99864  0.50013  1.0000
  C   C23       1.0  0.61209  0.09688  0.50242  1.0000
  C   C24       1.0  0.55690  0.19519  0.50427  1.0000
  C   C25       1.0  0.39390  0.29963  0.50529  1.0000
  C   C26       1.0  0.44577  0.19779  0.50436  1.0000
  C   C27       1.0  0.61465  0.29212  0.50638  1.0000
  C   C28       1.0  0.56072  0.38974  0.50999  1.0000
  C   C29       1.0  0.38620  0.70073  0.47412  1.0000
  C   C30       1.0  0.55633  0.80004  0.50128  1.0000
  C   C31       1.0  0.38906  0.89820  0.49598  1.0000
  C   C32       1.0  0.44521  0.79902  0.49274  1.0000
  C   C33       1.0  0.61092  0.90006  0.50131  1.0000
  C   C34       1.0  0.88952  0.99962  0.50292  1.0000
  C   C35       1.0  0.72326  0.09801  0.50313  1.0000
  C   C36       1.0  0.77843  0.99892  0.50322  1.0000
  C   C37       1.0  0.94616  0.09954  0.50275  1.0000
  C   C38       1.0  0.89093  0.19904  0.50366  1.0000
  C   C39       1.0  0.72469  0.29579  0.50559  1.0000
  C   C40       1.0  0.78002  0.19722  0.50405  1.0000
  C   C41       1.0  0.94528  0.29996  0.50373  1.0000
  C   C42       1.0  0.88802  0.39917  0.50482  1.0000
  C   C43       1.0  0.71645  0.49469  0.51021  1.0000
  C   C44       1.0  0.77697  0.39737  0.50629  1.0000
  C   C45       1.0  0.94118  0.50009  0.50433  1.0000
  C   C46       1.0  0.88268  0.59909  0.50592  1.0000
  C   C47       1.0  0.71579  0.70139  0.50930  1.0000
  C   C48       1.0  0.76989  0.59815  0.50987  1.0000
  C   C49       1.0  0.94009  0.69891  0.50319  1.0000
  C   C50       1.0  0.88651  0.79939  0.50316  1.0000
  C   C51       1.0  0.72183  0.89975  0.50342  1.0000
  C   C52       1.0  0.77555  0.79944  0.50443  1.0000
  C   C53       1.0  0.94338  0.89939  0.50221  1.0000
  N   N1        1.0  0.27315  0.50494  0.49492  1.0000
  N   N2        1.0  0.45352  0.39196  0.50826  1.0000
  N   N3        1.0  0.60931  0.48692  0.51495  1.0000
  N   N4        1.0  0.42568  0.63164  0.42678  1.0000
  N   N5        1.0  0.60949  0.70558  0.51247  1.0000
  Fe  Fe1       1.0  0.41515  0.53178  0.48590  1.0000
  Zn  Zn1       1.0  0.52168  0.60323  0.57692  1.0000
