data_image0
_chemical_formula_structural       C52N5FeZn
_chemical_formula_sum              "C52 N5 Fe1 Zn1"
_cell_length_a       12.81
_cell_length_b       12.4
_cell_length_c       20
_cell_angle_alpha    90
_cell_angle_beta     90
_cell_angle_gamma    90

_space_group_name_H-M_alt    "P 1"
_space_group_IT_number       1

loop_
  _space_group_symop_operation_xyz
  'x, y, z'

loop_
  _atom_site_type_symbol
  _atom_site_label
  _atom_site_symmetry_multiplicity
  _atom_site_fract_x
  _atom_site_fract_y
  _atom_site_fract_z
  _atom_site_occupancy
  C   C1        1.0  0.22194  0.00312  0.50278  1.0000
  C   C2        1.0  0.05725  0.10268  0.50253  1.0000
  C   C3        1.0  0.11077  0.00190  0.50237  1.0000
  C   C4        1.0  0.27799  0.10401  0.50343  1.0000
  C   C5        1.0  0.22536  0.20661  0.50265  1.0000
  C   C6        1.0  0.05715  0.30342  0.50244  1.0000
  C   C7        1.0  0.11316  0.20384  0.50230  1.0000
  C   C8        1.0  0.28230  0.30815  0.50261  1.0000
  C   C9        1.0  0.22498  0.41025  0.50119  1.0000
  C   C10       1.0  0.05358  0.50314  0.50188  1.0000
  C   C11       1.0  0.11191  0.40474  0.50176  1.0000
  C   C12       1.0  0.22112  0.60160  0.50079  1.0000
  C   C13       1.0  0.05221  0.70173  0.50195  1.0000
  C   C14       1.0  0.10925  0.60297  0.50153  1.0000
  C   C15       1.0  0.27827  0.70340  0.50133  1.0000
  C   C16       1.0  0.22084  0.80189  0.50205  1.0000
  C   C17       1.0  0.05445  0.90153  0.50232  1.0000
  C   C18       1.0  0.10887  0.80125  0.50205  1.0000
  C   C19       1.0  0.27618  0.90257  0.50278  1.0000
  C   C20       1.0  0.55438  0.99923  0.50572  1.0000
  C   C21       1.0  0.38884  0.10163  0.50506  1.0000
  C   C22       1.0  0.44349  0.00080  0.50502  1.0000
  C   C23       1.0  0.61161  0.09724  0.50701  1.0000
  C   C24       1.0  0.55681  0.19613  0.50791  1.0000
  C   C25       1.0  0.39493  0.30429  0.50495  1.0000
  C   C26       1.0  0.44584  0.20058  0.50643  1.0000
  C   C27       1.0  0.61518  0.29250  0.50873  1.0000
  C   C28       1.0  0.56094  0.38964  0.50764  1.0000
  C   C29       1.0  0.55414  0.79925  0.50274  1.0000
  C   C30       1.0  0.38745  0.90093  0.50354  1.0000
  C   C31       1.0  0.44054  0.79978  0.50260  1.0000
  C   C32       1.0  0.60887  0.89948  0.50440  1.0000
  C   C33       1.0  0.88903  0.00046  0.50357  1.0000
  C   C34       1.0  0.72307  0.09863  0.50628  1.0000
  C   C35       1.0  0.77765  0.99923  0.50467  1.0000
  C   C36       1.0  0.94587  0.10074  0.50337  1.0000
  C   C37       1.0  0.89101  0.20036  0.50440  1.0000
  C   C38       1.0  0.72514  0.29668  0.50745  1.0000
  C   C39       1.0  0.78010  0.19794  0.50626  1.0000
  C   C40       1.0  0.94535  0.30159  0.50367  1.0000
  C   C41       1.0  0.88803  0.40091  0.50414  1.0000
  C   C42       1.0  0.71530  0.49591  0.50509  1.0000
  C   C43       1.0  0.77668  0.39846  0.50593  1.0000
  C   C44       1.0  0.94124  0.50190  0.50282  1.0000
  C   C45       1.0  0.88206  0.60038  0.50269  1.0000
  C   C46       1.0  0.71235  0.70076  0.50230  1.0000
  C   C47       1.0  0.76863  0.59883  0.50307  1.0000
  C   C48       1.0  0.94003  0.70005  0.50228  1.0000
  C   C49       1.0  0.88546  0.80000  0.50270  1.0000
  C   C50       1.0  0.72029  0.89977  0.50402  1.0000
  C   C51       1.0  0.77341  0.79932  0.50296  1.0000
  C   C52       1.0  0.94276  0.90006  0.50276  1.0000
  N   N1        1.0  0.27637  0.50754  0.49997  1.0000
  N   N2        1.0  0.45513  0.39615  0.50538  1.0000
  N   N3        1.0  0.60826  0.48787  0.50569  1.0000
  N   N4        1.0  0.38647  0.70323  0.50113  1.0000
  N   N5        1.0  0.60505  0.70295  0.50122  1.0000
  Fe  Fe1       1.0  0.46317  0.56456  0.49568  1.0000
  Zn  Zn1       1.0  0.47686  0.56699  0.35986  1.0000
