data_image0
_chemical_formula_structural       C49N7CuFe
_chemical_formula_sum              "C49 N7 Cu1 Fe1"
_cell_length_a       13.0091
_cell_length_b       12.2573
_cell_length_c       19.9231
_cell_angle_alpha    90.0027
_cell_angle_beta     89.9832
_cell_angle_gamma    89.9499

_space_group_name_H-M_alt    "P 1"
_space_group_IT_number       1

loop_
  _space_group_symop_operation_xyz
  'x, y, z'

loop_
  _atom_site_type_symbol
  _atom_site_label
  _atom_site_symmetry_multiplicity
  _atom_site_fract_x
  _atom_site_fract_y
  _atom_site_fract_z
  _atom_site_occupancy
  C   C1        1.0  0.22815  0.99964  0.49979  1.0000
  C   C2        1.0  0.05798  0.09923  0.49998  1.0000
  C   C3        1.0  0.11583  0.99965  0.49993  1.0000
  C   C4        1.0  0.28255  0.10399  0.49956  1.0000
  C   C5        1.0  0.22227  0.20483  0.49949  1.0000
  C   C6        1.0  0.05099  0.29849  0.50005  1.0000
  C   C7        1.0  0.11081  0.20044  0.49986  1.0000
  C   C8        1.0  0.20993  0.39886  0.49956  1.0000
  C   C9        1.0  0.04788  0.49970  0.50028  1.0000
  C   C10       1.0  0.10231  0.39956  0.50006  1.0000
  C   C11       1.0  0.26371  0.49989  0.49943  1.0000
  C   C12       1.0  0.20935  0.60001  0.49982  1.0000
  C   C13       1.0  0.05120  0.70112  0.50012  1.0000
  C   C14       1.0  0.10231  0.59993  0.50017  1.0000
  C   C15       1.0  0.22321  0.79425  0.49982  1.0000
  C   C16       1.0  0.05844  0.90008  0.50001  1.0000
  C   C17       1.0  0.11177  0.79867  0.49999  1.0000
  C   C18       1.0  0.28276  0.89503  0.49982  1.0000
  C   C19       1.0  0.55826  0.99993  0.50005  1.0000
  C   C20       1.0  0.39487  0.10380  0.49958  1.0000
  C   C21       1.0  0.44796  0.99929  0.49988  1.0000
  C   C22       1.0  0.61427  0.09988  0.49999  1.0000
  C   C23       1.0  0.55808  0.19936  0.49960  1.0000
  C   C24       1.0  0.61328  0.30243  0.49949  1.0000
  C   C25       1.0  0.60883  0.50010  0.49939  1.0000
  C   C26       1.0  0.61389  0.69839  0.49974  1.0000
  C   C27       1.0  0.55901  0.80057  0.49992  1.0000
  C   C28       1.0  0.39493  0.89540  0.49984  1.0000
  C   C29       1.0  0.61450  0.90008  0.50012  1.0000
  C   C30       1.0  0.89107  0.99982  0.50009  1.0000
  C   C31       1.0  0.72439  0.09943  0.50012  1.0000
  C   C32       1.0  0.78057  0.99995  0.50014  1.0000
  C   C33       1.0  0.94666  0.09949  0.50010  1.0000
  C   C34       1.0  0.88869  0.19860  0.50016  1.0000
  C   C35       1.0  0.72223  0.29930  0.49991  1.0000
  C   C36       1.0  0.77862  0.19903  0.50011  1.0000
  C   C37       1.0  0.94163  0.29900  0.50018  1.0000
  C   C38       1.0  0.88543  0.39944  0.50020  1.0000
  C   C39       1.0  0.72016  0.50034  0.49985  1.0000
  C   C40       1.0  0.77606  0.40014  0.50000  1.0000
  C   C41       1.0  0.93960  0.49984  0.50027  1.0000
  C   C42       1.0  0.88567  0.60046  0.50016  1.0000
  C   C43       1.0  0.72260  0.70086  0.49995  1.0000
  C   C44       1.0  0.77652  0.60006  0.50000  1.0000
  C   C45       1.0  0.94204  0.70079  0.50011  1.0000
  C   C46       1.0  0.88901  0.80125  0.50005  1.0000
  C   C47       1.0  0.72459  0.90058  0.50012  1.0000
  C   C48       1.0  0.77895  0.80097  0.50005  1.0000
  C   C49       1.0  0.94700  0.90007  0.50004  1.0000
  N   N1        1.0  0.26781  0.30556  0.49916  1.0000
  N   N2        1.0  0.26993  0.69246  0.49960  1.0000
  N   N3        1.0  0.45222  0.19898  0.49933  1.0000
  N   N4        1.0  0.55902  0.40070  0.49905  1.0000
  N   N5        1.0  0.36623  0.50488  0.49887  1.0000
  N   N6        1.0  0.55717  0.60083  0.49932  1.0000
  N   N7        1.0  0.45234  0.79903  0.49975  1.0000
  Cu  Cu1       1.0  0.41227  0.35527  0.49873  1.0000
  Fe  Fe1       1.0  0.41263  0.64517  0.49911  1.0000
