data_image0
_chemical_formula_structural       C54N2ZnFe
_chemical_formula_sum              "C54 N2 Zn1 Fe1"
_cell_length_a       12.7787
_cell_length_b       12.5627
_cell_length_c       19.7893
_cell_angle_alpha    90.0031
_cell_angle_beta     90.0854
_cell_angle_gamma    89.8245

_space_group_name_H-M_alt    "P 1"
_space_group_IT_number       1

loop_
  _space_group_symop_operation_xyz
  'x, y, z'

loop_
  _atom_site_type_symbol
  _atom_site_label
  _atom_site_symmetry_multiplicity
  _atom_site_fract_x
  _atom_site_fract_y
  _atom_site_fract_z
  _atom_site_occupancy
  C   C1        1.0  0.22180  0.99839  0.50022  1.0000
  C   C2        1.0  0.05473  0.09917  0.49907  1.0000
  C   C3        1.0  0.11024  0.99938  0.50004  1.0000
  C   C4        1.0  0.27765  0.09609  0.49922  1.0000
  C   C5        1.0  0.22231  0.19428  0.49754  1.0000
  C   C6        1.0  0.05553  0.29880  0.49724  1.0000
  C   C7        1.0  0.11056  0.19814  0.49780  1.0000
  C   C8        1.0  0.28028  0.29106  0.49388  1.0000
  C   C9        1.0  0.05799  0.49886  0.50048  1.0000
  C   C10       1.0  0.11511  0.39708  0.49590  1.0000
  C   C11       1.0  0.05587  0.70036  0.50288  1.0000
  C   C12       1.0  0.11320  0.60112  0.50558  1.0000
  C   C13       1.0  0.27709  0.70467  0.50747  1.0000
  C   C14       1.0  0.22190  0.80257  0.50313  1.0000
  C   C15       1.0  0.05541  0.90005  0.50081  1.0000
  C   C16       1.0  0.11065  0.80048  0.50252  1.0000
  C   C17       1.0  0.27750  0.90044  0.50138  1.0000
  C   C18       1.0  0.55626  0.99808  0.50014  1.0000
  C   C19       1.0  0.38915  0.09567  0.49909  1.0000
  C   C20       1.0  0.44473  0.99741  0.50037  1.0000
  C   C21       1.0  0.61238  0.09643  0.49925  1.0000
  C   C22       1.0  0.55757  0.19386  0.49770  1.0000
  C   C23       1.0  0.44508  0.19390  0.49708  1.0000
  C   C24       1.0  0.55779  0.60644  0.50308  1.0000
  C   C25       1.0  0.39145  0.70197  0.50568  1.0000
  C   C26       1.0  0.61323  0.70435  0.50176  1.0000
  C   C27       1.0  0.55694  0.80203  0.50156  1.0000
  C   C28       1.0  0.38920  0.89947  0.50164  1.0000
  C   C29       1.0  0.44583  0.80109  0.50285  1.0000
  C   C30       1.0  0.61234  0.90049  0.50042  1.0000
  C   C31       1.0  0.88945  0.99992  0.49956  1.0000
  C   C32       1.0  0.72315  0.09864  0.49909  1.0000
  C   C33       1.0  0.77860  0.99964  0.49951  1.0000
  C   C34       1.0  0.94337  0.10003  0.49925  1.0000
  C   C35       1.0  0.88752  0.20036  0.49885  1.0000
  C   C36       1.0  0.71552  0.29808  0.49773  1.0000
  C   C37       1.0  0.77544  0.19984  0.49860  1.0000
  C   C38       1.0  0.94286  0.29985  0.49830  1.0000
  C   C39       1.0  0.88531  0.39959  0.49853  1.0000
  C   C40       1.0  0.71786  0.50364  0.49999  1.0000
  C   C41       1.0  0.77154  0.39989  0.49853  1.0000
  C   C42       1.0  0.94553  0.49891  0.49981  1.0000
  C   C43       1.0  0.88973  0.59979  0.50058  1.0000
  C   C44       1.0  0.72416  0.70194  0.50069  1.0000
  C   C45       1.0  0.77817  0.60127  0.50043  1.0000
  C   C46       1.0  0.94462  0.69999  0.50083  1.0000
  C   C47       1.0  0.88991  0.80030  0.50009  1.0000
  C   C48       1.0  0.72352  0.90042  0.49997  1.0000
  C   C49       1.0  0.77908  0.80102  0.50015  1.0000
  C   C50       1.0  0.94459  0.90016  0.50005  1.0000
  C   C51       1.0  0.22547  0.38870  0.49054  1.0000
  C   C52       1.0  0.22271  0.60859  0.51282  1.0000
  C   C53       1.0  0.39350  0.29314  0.49392  1.0000
  C   C54       1.0  0.44697  0.60323  0.50512  1.0000
  N   N1        1.0  0.60639  0.29141  0.49613  1.0000
  N   N2        1.0  0.61154  0.51020  0.50146  1.0000
  Zn  Zn1       1.0  0.32945  0.49865  0.50178  1.0000
  Fe  Fe1       1.0  0.50059  0.40626  0.49444  1.0000
