data_image0
_chemical_formula_structural       C52N4NiFe
_chemical_formula_sum              "C52 N4 Ni1 Fe1"
_cell_length_a       12.7142
_cell_length_b       12.4671
_cell_length_c       20.0424
_cell_angle_alpha    90.0107
_cell_angle_beta     89.9862
_cell_angle_gamma    89.9328

_space_group_name_H-M_alt    "P 1"
_space_group_IT_number       1

loop_
  _space_group_symop_operation_xyz
  'x, y, z'

loop_
  _atom_site_type_symbol
  _atom_site_label
  _atom_site_symmetry_multiplicity
  _atom_site_fract_x
  _atom_site_fract_y
  _atom_site_fract_z
  _atom_site_occupancy
  C   C1        1.0  0.22063  0.99947  0.50002  1.0000
  C   C2        1.0  0.05495  0.10044  0.50002  1.0000
  C   C3        1.0  0.10940  0.99960  0.50001  1.0000
  C   C4        1.0  0.27614  0.09889  0.50000  1.0000
  C   C5        1.0  0.22329  0.19956  0.49997  1.0000
  C   C6        1.0  0.05598  0.30054  0.50001  1.0000
  C   C7        1.0  0.11108  0.20053  0.50001  1.0000
  C   C8        1.0  0.28305  0.29788  0.49987  1.0000
  C   C9        1.0  0.22671  0.39866  0.49989  1.0000
  C   C10       1.0  0.05692  0.50040  0.50001  1.0000
  C   C11       1.0  0.11402  0.39994  0.49998  1.0000
  C   C12       1.0  0.28347  0.49998  0.49984  1.0000
  C   C13       1.0  0.22719  0.60133  0.49995  1.0000
  C   C14       1.0  0.05596  0.69923  0.50002  1.0000
  C   C15       1.0  0.11404  0.60026  0.50001  1.0000
  C   C16       1.0  0.28399  0.70140  0.49998  1.0000
  C   C17       1.0  0.22392  0.79984  0.50001  1.0000
  C   C18       1.0  0.05499  0.89902  0.50000  1.0000
  C   C19       1.0  0.11149  0.79906  0.50001  1.0000
  C   C20       1.0  0.27683  0.90040  0.50003  1.0000
  C   C21       1.0  0.55484  0.99994  0.50005  1.0000
  C   C22       1.0  0.38717  0.09789  0.49999  1.0000
  C   C23       1.0  0.44395  0.99971  0.50005  1.0000
  C   C24       1.0  0.61012  0.09927  0.49999  1.0000
  C   C25       1.0  0.55408  0.19816  0.49988  1.0000
  C   C26       1.0  0.44163  0.19595  0.49989  1.0000
  C   C27       1.0  0.55559  0.80211  0.50002  1.0000
  C   C28       1.0  0.38840  0.90131  0.50005  1.0000
  C   C29       1.0  0.44352  0.80306  0.50002  1.0000
  C   C30       1.0  0.61035  0.90086  0.50005  1.0000
  C   C31       1.0  0.88854  0.99984  0.50001  1.0000
  C   C32       1.0  0.72142  0.10020  0.50000  1.0000
  C   C33       1.0  0.77719  0.00008  0.50002  1.0000
  C   C34       1.0  0.94325  0.10057  0.50002  1.0000
  C   C35       1.0  0.88748  0.20086  0.50001  1.0000
  C   C36       1.0  0.71663  0.30045  0.49987  1.0000
  C   C37       1.0  0.77495  0.20085  0.49997  1.0000
  C   C38       1.0  0.94365  0.30055  0.50002  1.0000
  C   C39       1.0  0.88670  0.40052  0.49999  1.0000
  C   C40       1.0  0.71681  0.49956  0.49984  1.0000
  C   C41       1.0  0.77491  0.39983  0.49989  1.0000
  C   C42       1.0  0.94371  0.50067  0.50001  1.0000
  C   C43       1.0  0.88572  0.60028  0.50001  1.0000
  C   C44       1.0  0.71519  0.70077  0.49997  1.0000
  C   C45       1.0  0.77234  0.60097  0.49995  1.0000
  C   C46       1.0  0.94328  0.69925  0.50002  1.0000
  C   C47       1.0  0.88714  0.79890  0.50001  1.0000
  C   C48       1.0  0.72187  0.90054  0.50003  1.0000
  C   C49       1.0  0.77462  0.79944  0.50001  1.0000
  C   C50       1.0  0.94301  0.89905  0.50001  1.0000
  C   C51       1.0  0.60479  0.29931  0.49978  1.0000
  C   C52       1.0  0.60796  0.49789  0.49969  1.0000
  N   N1        1.0  0.39140  0.29284  0.49979  1.0000
  N   N2        1.0  0.38772  0.50106  0.49966  1.0000
  N   N3        1.0  0.39300  0.70558  0.49996  1.0000
  N   N4        1.0  0.60532  0.70319  0.49995  1.0000
  Ni  Ni1       1.0  0.49524  0.40575  0.49965  1.0000
  Fe  Fe1       1.0  0.49685  0.58903  0.49975  1.0000
