data_image0
_chemical_formula_structural       C54N2FeSc
_chemical_formula_sum              "C54 N2 Fe1 Sc1"
_cell_length_a       13.0098
_cell_length_b       12.3388
_cell_length_c       19.7909
_cell_angle_alpha    90.1218
_cell_angle_beta     90.3081
_cell_angle_gamma    90.159

_space_group_name_H-M_alt    "P 1"
_space_group_IT_number       1

loop_
  _space_group_symop_operation_xyz
  'x, y, z'

loop_
  _atom_site_type_symbol
  _atom_site_label
  _atom_site_symmetry_multiplicity
  _atom_site_fract_x
  _atom_site_fract_y
  _atom_site_fract_z
  _atom_site_occupancy
  C   C1        1.0  0.22439  0.00038  0.49749  1.0000
  C   C2        1.0  0.05664  0.09981  0.50614  1.0000
  C   C3        1.0  0.11236  0.00037  0.50207  1.0000
  C   C4        1.0  0.27951  0.10210  0.49716  1.0000
  C   C5        1.0  0.22207  0.20246  0.49618  1.0000
  C   C6        1.0  0.05330  0.29909  0.50653  1.0000
  C   C7        1.0  0.11139  0.20055  0.50322  1.0000
  C   C8        1.0  0.21032  0.39943  0.48644  1.0000
  C   C9        1.0  0.05050  0.50078  0.50369  1.0000
  C   C10       1.0  0.10418  0.40005  0.50016  1.0000
  C   C11       1.0  0.26236  0.49863  0.46826  1.0000
  C   C12       1.0  0.20964  0.60242  0.47635  1.0000
  C   C13       1.0  0.05242  0.70120  0.50139  1.0000
  C   C14       1.0  0.10431  0.60067  0.49565  1.0000
  C   C15       1.0  0.21924  0.79914  0.48549  1.0000
  C   C16       1.0  0.05563  0.90085  0.50382  1.0000
  C   C17       1.0  0.10969  0.80060  0.49732  1.0000
  C   C18       1.0  0.27869  0.89932  0.49153  1.0000
  C   C19       1.0  0.55666  0.00053  0.50465  1.0000
  C   C20       1.0  0.39156  0.10364  0.49796  1.0000
  C   C21       1.0  0.44577  0.00146  0.50016  1.0000
  C   C22       1.0  0.61344  0.10017  0.50685  1.0000
  C   C23       1.0  0.55868  0.20035  0.50320  1.0000
  C   C24       1.0  0.61651  0.30178  0.50483  1.0000
  C   C25       1.0  0.61367  0.49676  0.50347  1.0000
  C   C26       1.0  0.61307  0.69606  0.50501  1.0000
  C   C27       1.0  0.55685  0.80084  0.50232  1.0000
  C   C28       1.0  0.39136  0.89914  0.49507  1.0000
  C   C29       1.0  0.61306  0.90072  0.50635  1.0000
  C   C30       1.0  0.89010  0.00003  0.51117  1.0000
  C   C31       1.0  0.72368  0.09934  0.51068  1.0000
  C   C32       1.0  0.77922  0.99988  0.51148  1.0000
  C   C33       1.0  0.94599  0.09954  0.51059  1.0000
  C   C34       1.0  0.88947  0.19892  0.51279  1.0000
  C   C35       1.0  0.72554  0.29945  0.51128  1.0000
  C   C36       1.0  0.77961  0.19892  0.51246  1.0000
  C   C37       1.0  0.94382  0.29914  0.51221  1.0000
  C   C38       1.0  0.88929  0.39937  0.51391  1.0000
  C   C39       1.0  0.72386  0.49848  0.51143  1.0000
  C   C40       1.0  0.77985  0.39942  0.51331  1.0000
  C   C41       1.0  0.94264  0.50045  0.51170  1.0000
  C   C42       1.0  0.88794  0.60058  0.51258  1.0000
  C   C43       1.0  0.72331  0.69945  0.51068  1.0000
  C   C44       1.0  0.77796  0.59966  0.51287  1.0000
  C   C45       1.0  0.94291  0.70070  0.50941  1.0000
  C   C46       1.0  0.88846  0.80074  0.51082  1.0000
  C   C47       1.0  0.72321  0.90049  0.51019  1.0000
  C   C48       1.0  0.77841  0.80009  0.51136  1.0000
  C   C49       1.0  0.94523  0.90049  0.50920  1.0000
  C   C50       1.0  0.27121  0.30466  0.48550  1.0000
  C   C51       1.0  0.26592  0.69868  0.46770  1.0000
  C   C52       1.0  0.44926  0.20264  0.49803  1.0000
  C   C53       1.0  0.55854  0.59643  0.49906  1.0000
  C   C54       1.0  0.44876  0.80073  0.49510  1.0000
  N   N1        1.0  0.56319  0.39634  0.49839  1.0000
  N   N2        1.0  0.35905  0.48909  0.44791  1.0000
  Fe  Fe1       1.0  0.41314  0.35240  0.47939  1.0000
  Sc  Sc1       1.0  0.42354  0.64945  0.44001  1.0000
