data_image0
_chemical_formula_structural       C50N6Fe2
_chemical_formula_sum              "C50 N6 Fe2"
_cell_length_a       12.6752
_cell_length_b       12.4619
_cell_length_c       20.1123
_cell_angle_alpha    90.018
_cell_angle_beta     89.9829
_cell_angle_gamma    90.0087

_space_group_name_H-M_alt    "P 1"
_space_group_IT_number       1

loop_
  _space_group_symop_operation_xyz
  'x, y, z'

loop_
  _atom_site_type_symbol
  _atom_site_label
  _atom_site_symmetry_multiplicity
  _atom_site_fract_x
  _atom_site_fract_y
  _atom_site_fract_z
  _atom_site_occupancy
  C   C1        1.0  0.22109  0.99988  0.50001  1.0000
  C   C2        1.0  0.05528  0.10083  0.50002  1.0000
  C   C3        1.0  0.10948  0.99990  0.50000  1.0000
  C   C4        1.0  0.27665  0.09935  0.50001  1.0000
  C   C5        1.0  0.22423  0.20039  0.49999  1.0000
  C   C6        1.0  0.05588  0.30101  0.50002  1.0000
  C   C7        1.0  0.11146  0.20116  0.50002  1.0000
  C   C8        1.0  0.28427  0.29881  0.49989  1.0000
  C   C9        1.0  0.22764  0.39893  0.49991  1.0000
  C   C10       1.0  0.05628  0.49988  0.50002  1.0000
  C   C11       1.0  0.11392  0.39999  0.50000  1.0000
  C   C12       1.0  0.28444  0.49992  0.49983  1.0000
  C   C13       1.0  0.22757  0.60087  0.49998  1.0000
  C   C14       1.0  0.05578  0.69878  0.50002  1.0000
  C   C15       1.0  0.11386  0.59980  0.50002  1.0000
  C   C16       1.0  0.28419  0.70098  0.50000  1.0000
  C   C17       1.0  0.22417  0.79940  0.50001  1.0000
  C   C18       1.0  0.05525  0.89898  0.49999  1.0000
  C   C19       1.0  0.11139  0.79864  0.50000  1.0000
  C   C20       1.0  0.27664  0.90040  0.50000  1.0000
  C   C21       1.0  0.55462  0.99984  0.50005  1.0000
  C   C22       1.0  0.38818  0.09856  0.50001  1.0000
  C   C23       1.0  0.44379  0.99985  0.50005  1.0000
  C   C24       1.0  0.61024  0.09854  0.50003  1.0000
  C   C25       1.0  0.55531  0.19683  0.49992  1.0000
  C   C26       1.0  0.44315  0.19685  0.49990  1.0000
  C   C27       1.0  0.55527  0.80285  0.50002  1.0000
  C   C28       1.0  0.38817  0.90116  0.50003  1.0000
  C   C29       1.0  0.44310  0.80286  0.50001  1.0000
  C   C30       1.0  0.61024  0.90114  0.50003  1.0000
  C   C31       1.0  0.88892  0.99988  0.50000  1.0000
  C   C32       1.0  0.72176  0.09934  0.50002  1.0000
  C   C33       1.0  0.77732  0.99987  0.50001  1.0000
  C   C34       1.0  0.94315  0.10081  0.50002  1.0000
  C   C35       1.0  0.88703  0.20115  0.50002  1.0000
  C   C36       1.0  0.71424  0.29875  0.49991  1.0000
  C   C37       1.0  0.77426  0.20035  0.50000  1.0000
  C   C38       1.0  0.94265  0.30100  0.50002  1.0000
  C   C39       1.0  0.88457  0.39997  0.50001  1.0000
  C   C40       1.0  0.71400  0.49984  0.49983  1.0000
  C   C41       1.0  0.77086  0.39889  0.49992  1.0000
  C   C42       1.0  0.94218  0.49987  0.50002  1.0000
  C   C43       1.0  0.88453  0.59977  0.50003  1.0000
  C   C44       1.0  0.71416  0.70093  0.50000  1.0000
  C   C45       1.0  0.77081  0.60082  0.49998  1.0000
  C   C46       1.0  0.94256  0.69877  0.50002  1.0000
  C   C47       1.0  0.88696  0.79861  0.50000  1.0000
  C   C48       1.0  0.72176  0.90038  0.50001  1.0000
  C   C49       1.0  0.77419  0.79935  0.50001  1.0000
  C   C50       1.0  0.94312  0.89896  0.49999  1.0000
  N   N1        1.0  0.39404  0.29524  0.49978  1.0000
  N   N2        1.0  0.60449  0.29522  0.49980  1.0000
  N   N3        1.0  0.38963  0.49986  0.49958  1.0000
  N   N4        1.0  0.60883  0.49987  0.49956  1.0000
  N   N5        1.0  0.39396  0.70446  0.49997  1.0000
  N   N6        1.0  0.60439  0.70444  0.49997  1.0000
  Fe  Fe1       1.0  0.49925  0.40969  0.49954  1.0000
  Fe  Fe2       1.0  0.49922  0.59008  0.49969  1.0000
