data_image0
_chemical_formula_structural       C52N4NiFe
_chemical_formula_sum              "C52 N4 Ni1 Fe1"
_cell_length_a       13.018
_cell_length_b       12.2963
_cell_length_c       19.8466
_cell_angle_alpha    89.9949
_cell_angle_beta     89.9879
_cell_angle_gamma    90.0783

_space_group_name_H-M_alt    "P 1"
_space_group_IT_number       1

loop_
  _space_group_symop_operation_xyz
  'x, y, z'

loop_
  _atom_site_type_symbol
  _atom_site_label
  _atom_site_symmetry_multiplicity
  _atom_site_fract_x
  _atom_site_fract_y
  _atom_site_fract_z
  _atom_site_occupancy
  C   C1        1.0  0.22670  0.00250  0.49978  1.0000
  C   C2        1.0  0.05690  0.09988  0.49996  1.0000
  C   C3        1.0  0.11421  0.00094  0.49991  1.0000
  C   C4        1.0  0.28224  0.10579  0.49961  1.0000
  C   C5        1.0  0.22211  0.20549  0.49959  1.0000
  C   C6        1.0  0.05093  0.29851  0.50005  1.0000
  C   C7        1.0  0.11056  0.20100  0.49988  1.0000
  C   C8        1.0  0.21025  0.39711  0.49960  1.0000
  C   C9        1.0  0.04906  0.49977  0.50019  1.0000
  C   C10       1.0  0.10280  0.39903  0.50002  1.0000
  C   C11       1.0  0.26545  0.49695  0.49934  1.0000
  C   C12       1.0  0.21232  0.59905  0.49971  1.0000
  C   C13       1.0  0.05276  0.70113  0.50014  1.0000
  C   C14       1.0  0.10400  0.59980  0.50009  1.0000
  C   C15       1.0  0.22274  0.79831  0.49982  1.0000
  C   C16       1.0  0.05759  0.90088  0.50002  1.0000
  C   C17       1.0  0.11158  0.79994  0.50001  1.0000
  C   C18       1.0  0.28012  0.89998  0.49979  1.0000
  C   C19       1.0  0.55741  0.99906  0.49994  1.0000
  C   C20       1.0  0.39470  0.10571  0.49958  1.0000
  C   C21       1.0  0.44696  0.00107  0.49979  1.0000
  C   C22       1.0  0.61354  0.09859  0.49991  1.0000
  C   C23       1.0  0.55841  0.19747  0.49962  1.0000
  C   C24       1.0  0.61247  0.30067  0.49957  1.0000
  C   C25       1.0  0.60871  0.50070  0.49951  1.0000
  C   C26       1.0  0.61567  0.69769  0.49978  1.0000
  C   C27       1.0  0.55844  0.79971  0.49987  1.0000
  C   C28       1.0  0.39189  0.89850  0.49979  1.0000
  C   C29       1.0  0.61381  0.89955  0.50002  1.0000
  C   C30       1.0  0.89067  0.99989  0.50010  1.0000
  C   C31       1.0  0.72387  0.09908  0.50005  1.0000
  C   C32       1.0  0.77984  0.99982  0.50012  1.0000
  C   C33       1.0  0.94582  0.09972  0.50008  1.0000
  C   C34       1.0  0.88810  0.19867  0.50011  1.0000
  C   C35       1.0  0.72233  0.29914  0.49987  1.0000
  C   C36       1.0  0.77821  0.19907  0.50004  1.0000
  C   C37       1.0  0.94131  0.29902  0.50014  1.0000
  C   C38       1.0  0.88597  0.39922  0.50015  1.0000
  C   C39       1.0  0.72044  0.49961  0.49983  1.0000
  C   C40       1.0  0.77616  0.39959  0.49996  1.0000
  C   C41       1.0  0.94067  0.49956  0.50022  1.0000
  C   C42       1.0  0.88711  0.60020  0.50015  1.0000
  C   C43       1.0  0.72461  0.70002  0.49995  1.0000
  C   C44       1.0  0.77745  0.59929  0.49998  1.0000
  C   C45       1.0  0.94286  0.70062  0.50016  1.0000
  C   C46       1.0  0.88941  0.80110  0.50011  1.0000
  C   C47       1.0  0.72417  0.90028  0.50010  1.0000
  C   C48       1.0  0.77951  0.80075  0.50007  1.0000
  C   C49       1.0  0.94655  0.90056  0.50009  1.0000
  C   C50       1.0  0.27263  0.69504  0.49956  1.0000
  C   C51       1.0  0.55324  0.39802  0.49930  1.0000
  C   C52       1.0  0.44916  0.79872  0.49974  1.0000
  N   N1        1.0  0.26896  0.30544  0.49933  1.0000
  N   N2        1.0  0.45288  0.20113  0.49940  1.0000
  N   N3        1.0  0.36777  0.49529  0.49878  1.0000
  N   N4        1.0  0.56116  0.60254  0.49948  1.0000
  Ni  Ni1       1.0  0.41265  0.35313  0.49901  1.0000
  Fe  Fe1       1.0  0.41261  0.64559  0.49918  1.0000
