data_image0
_chemical_formula_structural       C48N6NiFe
_chemical_formula_sum              "C48 N6 Ni1 Fe1"
_cell_length_a       12.7312
_cell_length_b       12.331
_cell_length_c       20.2365
_cell_angle_alpha    90.0189
_cell_angle_beta     90.0146
_cell_angle_gamma    90.0044

_space_group_name_H-M_alt    "P 1"
_space_group_IT_number       1

loop_
  _space_group_symop_operation_xyz
  'x, y, z'

loop_
  _atom_site_type_symbol
  _atom_site_label
  _atom_site_symmetry_multiplicity
  _atom_site_fract_x
  _atom_site_fract_y
  _atom_site_fract_z
  _atom_site_occupancy
  C   C1        1.0  0.22184  0.00174  0.49996  1.0000
  C   C2        1.0  0.05618  0.10183  0.49959  1.0000
  C   C3        1.0  0.11007  0.00099  0.49994  1.0000
  C   C4        1.0  0.27787  0.10250  0.49884  1.0000
  C   C5        1.0  0.22540  0.20460  0.49823  1.0000
  C   C6        1.0  0.05673  0.30242  0.49908  1.0000
  C   C7        1.0  0.11254  0.20287  0.49905  1.0000
  C   C8        1.0  0.28583  0.30441  0.49711  1.0000
  C   C9        1.0  0.22828  0.40715  0.49958  1.0000
  C   C10       1.0  0.05570  0.50080  0.49975  1.0000
  C   C11       1.0  0.11404  0.40221  0.49943  1.0000
  C   C12       1.0  0.22512  0.59793  0.50205  1.0000
  C   C13       1.0  0.05420  0.69946  0.50037  1.0000
  C   C14       1.0  0.11168  0.60046  0.50048  1.0000
  C   C15       1.0  0.28029  0.70113  0.50323  1.0000
  C   C16       1.0  0.22207  0.79994  0.50162  1.0000
  C   C17       1.0  0.05450  0.90002  0.50036  1.0000
  C   C18       1.0  0.10978  0.79968  0.50068  1.0000
  C   C19       1.0  0.27650  0.90127  0.50127  1.0000
  C   C20       1.0  0.55453  0.99924  0.50110  1.0000
  C   C21       1.0  0.38933  0.10224  0.49876  1.0000
  C   C22       1.0  0.44372  0.00117  0.50076  1.0000
  C   C23       1.0  0.61032  0.09914  0.49939  1.0000
  C   C24       1.0  0.55744  0.20021  0.49615  1.0000
  C   C25       1.0  0.44364  0.20342  0.49615  1.0000
  C   C26       1.0  0.55438  0.79736  0.50408  1.0000
  C   C27       1.0  0.38806  0.90119  0.50211  1.0000
  C   C28       1.0  0.44113  0.79980  0.50421  1.0000
  C   C29       1.0  0.60888  0.89848  0.50238  1.0000
  C   C30       1.0  0.88834  0.99975  0.50057  1.0000
  C   C31       1.0  0.72181  0.09933  0.49983  1.0000
  C   C32       1.0  0.77657  0.99879  0.50096  1.0000
  C   C33       1.0  0.94392  0.10069  0.49994  1.0000
  C   C34       1.0  0.88854  0.20100  0.49941  1.0000
  C   C35       1.0  0.71762  0.29914  0.49620  1.0000
  C   C36       1.0  0.77632  0.20048  0.49879  1.0000
  C   C37       1.0  0.94377  0.30140  0.49899  1.0000
  C   C38       1.0  0.88591  0.40039  0.49846  1.0000
  C   C39       1.0  0.77240  0.40295  0.49698  1.0000
  C   C40       1.0  0.94217  0.50007  0.49906  1.0000
  C   C41       1.0  0.88412  0.59862  0.49928  1.0000
  C   C42       1.0  0.71308  0.69654  0.50193  1.0000
  C   C43       1.0  0.76980  0.59404  0.49922  1.0000
  C   C44       1.0  0.94134  0.69843  0.50002  1.0000
  C   C45       1.0  0.88577  0.79804  0.50051  1.0000
  C   C46       1.0  0.72050  0.89829  0.50180  1.0000
  C   C47       1.0  0.77303  0.79626  0.50138  1.0000
  C   C48       1.0  0.94227  0.89891  0.50053  1.0000
  N   N1        1.0  0.28082  0.50375  0.50205  1.0000
  N   N2        1.0  0.39419  0.30237  0.49434  1.0000
  N   N3        1.0  0.61065  0.29586  0.49327  1.0000
  N   N4        1.0  0.38785  0.70306  0.50549  1.0000
  N   N5        1.0  0.60444  0.69822  0.50487  1.0000
  N   N6        1.0  0.71667  0.49741  0.49713  1.0000
  Ni  Ni1       1.0  0.51602  0.41426  0.48115  1.0000
  Fe  Fe1       1.0  0.48645  0.58194  0.51958  1.0000
