data_image0
_chemical_formula_structural       C54N4FeZn
_chemical_formula_sum              "C54 N4 Fe1 Zn1"
_cell_length_a       12.81
_cell_length_b       12.4
_cell_length_c       20
_cell_angle_alpha    90
_cell_angle_beta     90
_cell_angle_gamma    90

_space_group_name_H-M_alt    "P 1"
_space_group_IT_number       1

loop_
  _space_group_symop_operation_xyz
  'x, y, z'

loop_
  _atom_site_type_symbol
  _atom_site_label
  _atom_site_symmetry_multiplicity
  _atom_site_fract_x
  _atom_site_fract_y
  _atom_site_fract_z
  _atom_site_occupancy
  C   C1        1.0  0.22133  0.00332  0.49648  1.0000
  C   C2        1.0  0.05570  0.10257  0.49123  1.0000
  C   C3        1.0  0.11031  0.00250  0.49249  1.0000
  C   C4        1.0  0.27746  0.10335  0.49922  1.0000
  C   C5        1.0  0.22341  0.20484  0.50059  1.0000
  C   C6        1.0  0.05579  0.30229  0.49290  1.0000
  C   C7        1.0  0.11201  0.20286  0.49482  1.0000
  C   C8        1.0  0.27977  0.30598  0.50732  1.0000
  C   C9        1.0  0.22041  0.40676  0.50713  1.0000
  C   C10       1.0  0.05472  0.50266  0.49499  1.0000
  C   C11       1.0  0.11013  0.40280  0.49708  1.0000
  C   C12       1.0  0.21979  0.60224  0.50944  1.0000
  C   C13       1.0  0.05443  0.70262  0.49238  1.0000
  C   C14       1.0  0.11031  0.60321  0.49771  1.0000
  C   C15       1.0  0.27659  0.70462  0.51013  1.0000
  C   C16       1.0  0.22015  0.80265  0.49963  1.0000
  C   C17       1.0  0.05453  0.90238  0.49040  1.0000
  C   C18       1.0  0.10951  0.80243  0.49327  1.0000
  C   C19       1.0  0.27603  0.90285  0.49938  1.0000
  C   C20       1.0  0.55473  0.99917  0.49883  1.0000
  C   C21       1.0  0.38867  0.10125  0.49986  1.0000
  C   C22       1.0  0.44359  0.00089  0.49971  1.0000
  C   C23       1.0  0.61091  0.09931  0.49628  1.0000
  C   C24       1.0  0.55637  0.19984  0.49942  1.0000
  C   C25       1.0  0.39350  0.30162  0.50927  1.0000
  C   C26       1.0  0.44552  0.20016  0.50201  1.0000
  C   C27       1.0  0.61211  0.30045  0.49973  1.0000
  C   C28       1.0  0.55649  0.39898  0.51015  1.0000
  C   C29       1.0  0.61274  0.50177  0.50913  1.0000
  C   C30       1.0  0.61120  0.69589  0.50736  1.0000
  C   C31       1.0  0.55245  0.79667  0.50745  1.0000
  C   C32       1.0  0.38693  0.90177  0.50187  1.0000
  C   C33       1.0  0.43905  0.80024  0.50969  1.0000
  C   C34       1.0  0.60856  0.89742  0.50009  1.0000
  C   C35       1.0  0.88793  0.00117  0.48849  1.0000
  C   C36       1.0  0.72189  0.10015  0.49233  1.0000
  C   C37       1.0  0.77635  1.00000  0.49086  1.0000
  C   C38       1.0  0.94415  0.10139  0.48866  1.0000
  C   C39       1.0  0.88874  0.20120  0.48883  1.0000
  C   C40       1.0  0.72276  0.30038  0.49350  1.0000
  C   C41       1.0  0.77758  0.20030  0.49058  1.0000
  C   C42       1.0  0.94453  0.30142  0.48971  1.0000
  C   C43       1.0  0.88898  0.40126  0.49030  1.0000
  C   C44       1.0  0.72229  0.49982  0.49757  1.0000
  C   C45       1.0  0.77789  0.40024  0.49268  1.0000
  C   C46       1.0  0.94411  0.50162  0.49126  1.0000
  C   C47       1.0  0.88816  0.60133  0.49101  1.0000
  C   C48       1.0  0.72153  0.69990  0.49655  1.0000
  C   C49       1.0  0.77751  0.60035  0.49457  1.0000
  C   C50       1.0  0.94332  0.70152  0.48986  1.0000
  C   C51       1.0  0.88754  0.80120  0.48920  1.0000
  C   C52       1.0  0.72007  0.89972  0.49420  1.0000
  C   C53       1.0  0.77618  0.80030  0.49230  1.0000
  C   C54       1.0  0.94335  0.90140  0.48854  1.0000
  N   N1        1.0  0.26901  0.50437  0.51942  1.0000
  N   N2        1.0  0.45044  0.39427  0.52023  1.0000
  N   N3        1.0  0.56283  0.59864  0.51878  1.0000
  N   N4        1.0  0.38223  0.70809  0.51996  1.0000
  Fe  Fe1       1.0  0.35992  0.45115  0.59286  1.0000
  Zn  Zn1       1.0  0.45108  0.61220  0.59423  1.0000
