data_image0
_chemical_formula_structural       C49N7FeZn
_chemical_formula_sum              "C49 N7 Fe1 Zn1"
_cell_length_a       12.81
_cell_length_b       12.4
_cell_length_c       20
_cell_angle_alpha    90
_cell_angle_beta     90
_cell_angle_gamma    90

_space_group_name_H-M_alt    "P 1"
_space_group_IT_number       1

loop_
  _space_group_symop_operation_xyz
  'x, y, z'

loop_
  _atom_site_type_symbol
  _atom_site_label
  _atom_site_symmetry_multiplicity
  _atom_site_fract_x
  _atom_site_fract_y
  _atom_site_fract_z
  _atom_site_occupancy
  C   C1        1.0  0.22773  0.99990  0.49318  1.0000
  C   C2        1.0  0.05880  0.09982  0.50380  1.0000
  C   C3        1.0  0.11552  0.00006  0.49977  1.0000
  C   C4        1.0  0.28204  0.10437  0.49032  1.0000
  C   C5        1.0  0.22306  0.20518  0.49191  1.0000
  C   C6        1.0  0.05242  0.29885  0.50698  1.0000
  C   C7        1.0  0.11189  0.20107  0.50116  1.0000
  C   C8        1.0  0.21019  0.39954  0.49069  1.0000
  C   C9        1.0  0.04983  0.49995  0.50865  1.0000
  C   C10       1.0  0.10381  0.39975  0.50375  1.0000
  C   C11       1.0  0.26436  0.49839  0.47883  1.0000
  C   C12       1.0  0.21111  0.60051  0.48910  1.0000
  C   C13       1.0  0.05251  0.70067  0.50653  1.0000
  C   C14       1.0  0.10408  0.59956  0.50291  1.0000
  C   C15       1.0  0.22220  0.79453  0.49172  1.0000
  C   C16       1.0  0.05838  0.90033  0.50373  1.0000
  C   C17       1.0  0.11107  0.79917  0.50083  1.0000
  C   C18       1.0  0.28210  0.89592  0.49003  1.0000
  C   C19       1.0  0.55832  0.00053  0.49843  1.0000
  C   C20       1.0  0.39466  0.10442  0.48987  1.0000
  C   C21       1.0  0.44784  0.00128  0.49237  1.0000
  C   C22       1.0  0.61378  0.10057  0.50198  1.0000
  C   C23       1.0  0.55827  0.19988  0.49743  1.0000
  C   C24       1.0  0.61243  0.30238  0.50079  1.0000
  C   C25       1.0  0.60824  0.49992  0.50086  1.0000
  C   C26       1.0  0.61267  0.69759  0.50210  1.0000
  C   C27       1.0  0.55778  0.80151  0.49751  1.0000
  C   C28       1.0  0.39500  0.89766  0.48915  1.0000
  C   C29       1.0  0.61398  0.90052  0.50238  1.0000
  C   C30       1.0  0.89134  0.00016  0.50975  1.0000
  C   C31       1.0  0.72433  0.09984  0.50769  1.0000
  C   C32       1.0  0.78019  0.00030  0.50947  1.0000
  C   C33       1.0  0.94697  0.09997  0.50885  1.0000
  C   C34       1.0  0.88927  0.19899  0.51125  1.0000
  C   C35       1.0  0.72177  0.29953  0.50808  1.0000
  C   C36       1.0  0.77823  0.19937  0.50998  1.0000
  C   C37       1.0  0.94256  0.29921  0.51217  1.0000
  C   C38       1.0  0.88627  0.39955  0.51411  1.0000
  C   C39       1.0  0.71986  0.49956  0.50901  1.0000
  C   C40       1.0  0.77603  0.39999  0.51137  1.0000
  C   C41       1.0  0.94046  0.49996  0.51407  1.0000
  C   C42       1.0  0.88608  0.60025  0.51425  1.0000
  C   C43       1.0  0.72193  0.70076  0.50914  1.0000
  C   C44       1.0  0.77563  0.59975  0.51197  1.0000
  C   C45       1.0  0.94245  0.70057  0.51225  1.0000
  C   C46       1.0  0.88931  0.80102  0.51163  1.0000
  C   C47       1.0  0.72445  0.90073  0.50835  1.0000
  C   C48       1.0  0.77833  0.80097  0.51077  1.0000
  C   C49       1.0  0.94675  0.90026  0.50903  1.0000
  N   N1        1.0  0.26941  0.30606  0.48519  1.0000
  N   N2        1.0  0.26710  0.69437  0.48503  1.0000
  N   N3        1.0  0.45138  0.20036  0.48926  1.0000
  N   N4        1.0  0.55589  0.40010  0.49580  1.0000
  N   N5        1.0  0.36408  0.49147  0.45888  1.0000
  N   N6        1.0  0.55890  0.59941  0.49811  1.0000
  N   N7        1.0  0.45241  0.80328  0.48801  1.0000
  Fe  Fe1       1.0  0.41080  0.35300  0.47783  1.0000
  Zn  Zn1       1.0  0.41416  0.64228  0.47188  1.0000
