data_image0
_chemical_formula_structural       C54N2FeSc
_chemical_formula_sum              "C54 N2 Fe1 Sc1"
_cell_length_a       12.7166
_cell_length_b       12.5153
_cell_length_c       19.9619
_cell_angle_alpha    90.0015
_cell_angle_beta     90.0086
_cell_angle_gamma    89.5837

_space_group_name_H-M_alt    "P 1"
_space_group_IT_number       1

loop_
  _space_group_symop_operation_xyz
  'x, y, z'

loop_
  _atom_site_type_symbol
  _atom_site_label
  _atom_site_symmetry_multiplicity
  _atom_site_fract_x
  _atom_site_fract_y
  _atom_site_fract_z
  _atom_site_occupancy
  C   C1        1.0  0.22173  0.99777  0.49748  1.0000
  C   C2        1.0  0.05341  0.09717  0.49663  1.0000
  C   C3        1.0  0.11026  0.99778  0.49659  1.0000
  C   C4        1.0  0.27627  0.09695  0.49824  1.0000
  C   C5        1.0  0.21856  0.19406  0.49718  1.0000
  C   C6        1.0  0.05316  0.29674  0.49783  1.0000
  C   C7        1.0  0.10768  0.19613  0.49678  1.0000
  C   C8        1.0  0.27260  0.29244  0.49909  1.0000
  C   C9        1.0  0.05971  0.49721  0.49670  1.0000
  C   C10       1.0  0.11190  0.39436  0.49752  1.0000
  C   C11       1.0  0.06019  0.69710  0.49676  1.0000
  C   C12       1.0  0.11905  0.59644  0.49632  1.0000
  C   C13       1.0  0.28054  0.70122  0.49781  1.0000
  C   C14       1.0  0.22417  0.79975  0.49769  1.0000
  C   C15       1.0  0.05632  0.89795  0.49656  1.0000
  C   C16       1.0  0.11280  0.79808  0.49686  1.0000
  C   C17       1.0  0.27821  0.89946  0.49826  1.0000
  C   C18       1.0  0.55571  0.00043  0.50111  1.0000
  C   C19       1.0  0.38753  0.10029  0.50122  1.0000
  C   C20       1.0  0.44396  0.00053  0.50091  1.0000
  C   C21       1.0  0.60974  0.09981  0.50374  1.0000
  C   C22       1.0  0.55445  0.19959  0.50913  1.0000
  C   C23       1.0  0.44034  0.20209  0.50433  1.0000
  C   C24       1.0  0.55794  0.60502  0.49807  1.0000
  C   C25       1.0  0.39325  0.70114  0.49903  1.0000
  C   C26       1.0  0.61347  0.70416  0.49832  1.0000
  C   C27       1.0  0.55752  0.80253  0.49884  1.0000
  C   C28       1.0  0.38972  0.90083  0.49934  1.0000
  C   C29       1.0  0.44625  0.80136  0.49912  1.0000
  C   C30       1.0  0.61213  0.90161  0.49923  1.0000
  C   C31       1.0  0.88854  0.99908  0.49770  1.0000
  C   C32       1.0  0.72127  0.10038  0.50219  1.0000
  C   C33       1.0  0.77746  0.00033  0.49935  1.0000
  C   C34       1.0  0.94223  0.09888  0.49754  1.0000
  C   C35       1.0  0.88666  0.19948  0.49917  1.0000
  C   C36       1.0  0.71774  0.30067  0.50818  1.0000
  C   C37       1.0  0.77516  0.20065  0.50235  1.0000
  C   C38       1.0  0.94187  0.29911  0.49925  1.0000
  C   C39       1.0  0.88714  0.40030  0.50026  1.0000
  C   C40       1.0  0.72141  0.50410  0.50020  1.0000
  C   C41       1.0  0.77486  0.40144  0.50396  1.0000
  C   C42       1.0  0.94719  0.49846  0.49775  1.0000
  C   C43       1.0  0.89202  0.59926  0.49716  1.0000
  C   C44       1.0  0.72488  0.70188  0.49731  1.0000
  C   C45       1.0  0.78031  0.60142  0.49733  1.0000
  C   C46       1.0  0.94799  0.69837  0.49675  1.0000
  C   C47       1.0  0.89158  0.79890  0.49678  1.0000
  C   C48       1.0  0.72354  0.90066  0.49853  1.0000
  C   C49       1.0  0.77995  0.80070  0.49725  1.0000
  C   C50       1.0  0.94510  0.89888  0.49673  1.0000
  C   C51       1.0  0.23157  0.59987  0.49587  1.0000
  C   C52       1.0  0.38337  0.30204  0.50253  1.0000
  C   C53       1.0  0.60722  0.29775  0.51733  1.0000
  C   C54       1.0  0.44550  0.59931  0.49866  1.0000
  N   N1        1.0  0.21811  0.38793  0.49821  1.0000
  N   N2        1.0  0.61442  0.51002  0.50013  1.0000
  Fe  Fe1       1.0  0.33235  0.48091  0.48840  1.0000
  Sc  Sc1       1.0  0.49829  0.42485  0.54898  1.0000
