data_image0
_chemical_formula_structural       C48N6FeV
_chemical_formula_sum              "C48 N6 Fe1 V1"
_cell_length_a       12.7285
_cell_length_b       12.2881
_cell_length_c       20.3123
_cell_angle_alpha    89.9918
_cell_angle_beta     90.0106
_cell_angle_gamma    90.5462

_space_group_name_H-M_alt    "P 1"
_space_group_IT_number       1

loop_
  _space_group_symop_operation_xyz
  'x, y, z'

loop_
  _atom_site_type_symbol
  _atom_site_label
  _atom_site_symmetry_multiplicity
  _atom_site_fract_x
  _atom_site_fract_y
  _atom_site_fract_z
  _atom_site_occupancy
  C   C1        1.0  0.22241  0.00247  0.49994  1.0000
  C   C2        1.0  0.05656  0.10232  0.50004  1.0000
  C   C3        1.0  0.11036  0.00165  0.50000  1.0000
  C   C4        1.0  0.27870  0.10318  0.49990  1.0000
  C   C5        1.0  0.22615  0.20521  0.49994  1.0000
  C   C6        1.0  0.05844  0.30311  0.50004  1.0000
  C   C7        1.0  0.11348  0.20346  0.50003  1.0000
  C   C8        1.0  0.28582  0.30562  0.49988  1.0000
  C   C9        1.0  0.23031  0.40772  0.50001  1.0000
  C   C10       1.0  0.05667  0.50126  0.50003  1.0000
  C   C11       1.0  0.11609  0.40327  0.50003  1.0000
  C   C12       1.0  0.22554  0.59982  0.50007  1.0000
  C   C13       1.0  0.05469  0.70007  0.50000  1.0000
  C   C14       1.0  0.11274  0.60128  0.50004  1.0000
  C   C15       1.0  0.27949  0.70236  0.50002  1.0000
  C   C16       1.0  0.22176  0.80111  0.49999  1.0000
  C   C17       1.0  0.05429  0.90077  0.49999  1.0000
  C   C18       1.0  0.10968  0.80065  0.49999  1.0000
  C   C19       1.0  0.27699  0.90192  0.49995  1.0000
  C   C20       1.0  0.55494  0.99918  0.49996  1.0000
  C   C21       1.0  0.39039  0.10261  0.49986  1.0000
  C   C22       1.0  0.44443  0.00114  0.49991  1.0000
  C   C23       1.0  0.61065  0.10016  0.49996  1.0000
  C   C24       1.0  0.55801  0.20192  0.49984  1.0000
  C   C25       1.0  0.44500  0.20394  0.49977  1.0000
  C   C26       1.0  0.55438  0.79509  0.50001  1.0000
  C   C27       1.0  0.38865  0.90044  0.49994  1.0000
  C   C28       1.0  0.44130  0.79843  0.49998  1.0000
  C   C29       1.0  0.60881  0.89754  0.50000  1.0000
  C   C30       1.0  0.88834  0.00014  0.50005  1.0000
  C   C31       1.0  0.72211  0.09977  0.50004  1.0000
  C   C32       1.0  0.77648  0.99917  0.50005  1.0000
  C   C33       1.0  0.94435  0.10124  0.50008  1.0000
  C   C34       1.0  0.88923  0.20165  0.50008  1.0000
  C   C35       1.0  0.71844  0.30030  0.49994  1.0000
  C   C36       1.0  0.77685  0.20140  0.50006  1.0000
  C   C37       1.0  0.94524  0.30198  0.50004  1.0000
  C   C38       1.0  0.88752  0.40055  0.49997  1.0000
  C   C39       1.0  0.77434  0.40328  0.49993  1.0000
  C   C40       1.0  0.94377  0.50051  0.49997  1.0000
  C   C41       1.0  0.88492  0.59885  0.49995  1.0000
  C   C42       1.0  0.71201  0.69548  0.49997  1.0000
  C   C43       1.0  0.77086  0.59365  0.49992  1.0000
  C   C44       1.0  0.94170  0.69886  0.49996  1.0000
  C   C45       1.0  0.88555  0.79802  0.49997  1.0000
  C   C46       1.0  0.72025  0.89795  0.50002  1.0000
  C   C47       1.0  0.77258  0.79590  0.49998  1.0000
  C   C48       1.0  0.94213  0.89942  0.50000  1.0000
  N   N1        1.0  0.28512  0.50627  0.50006  1.0000
  N   N2        1.0  0.39494  0.30369  0.49967  1.0000
  N   N3        1.0  0.61114  0.29973  0.49978  1.0000
  N   N4        1.0  0.38730  0.70169  0.49999  1.0000
  N   N5        1.0  0.60320  0.69505  0.50001  1.0000
  N   N6        1.0  0.71826  0.49696  0.49988  1.0000
  Fe  Fe1       1.0  0.50329  0.42128  0.49900  1.0000
  V   V1        1.0  0.46783  0.55309  0.49999  1.0000
