data_image0
_chemical_formula_structural       C50N6FeSc
_chemical_formula_sum              "C50 N6 Fe1 Sc1"
_cell_length_a       12.7082
_cell_length_b       12.4915
_cell_length_c       20.0125
_cell_angle_alpha    89.9874
_cell_angle_beta     90.009
_cell_angle_gamma    89.9973

_space_group_name_H-M_alt    "P 1"
_space_group_IT_number       1

loop_
  _space_group_symop_operation_xyz
  'x, y, z'

loop_
  _atom_site_type_symbol
  _atom_site_label
  _atom_site_symmetry_multiplicity
  _atom_site_fract_x
  _atom_site_fract_y
  _atom_site_fract_z
  _atom_site_occupancy
  C   C1        1.0  0.22101  0.99995  0.50484  1.0000
  C   C2        1.0  0.05522  0.10074  0.50562  1.0000
  C   C3        1.0  0.10946  0.99997  0.50501  1.0000
  C   C4        1.0  0.27655  0.09921  0.50627  1.0000
  C   C5        1.0  0.22372  0.20000  0.50588  1.0000
  C   C6        1.0  0.05575  0.30098  0.50450  1.0000
  C   C7        1.0  0.11117  0.20103  0.50547  1.0000
  C   C8        1.0  0.28350  0.29824  0.50436  1.0000
  C   C9        1.0  0.22732  0.39886  0.50108  1.0000
  C   C10       1.0  0.05623  0.49974  0.50068  1.0000
  C   C11       1.0  0.11369  0.39992  0.50242  1.0000
  C   C12       1.0  0.28488  0.49872  0.49311  1.0000
  C   C13       1.0  0.22725  0.60030  0.49472  1.0000
  C   C14       1.0  0.05570  0.69863  0.50091  1.0000
  C   C15       1.0  0.11375  0.59956  0.49898  1.0000
  C   C16       1.0  0.28214  0.70226  0.49431  1.0000
  C   C17       1.0  0.22276  0.80014  0.50019  1.0000
  C   C18       1.0  0.05508  0.89932  0.50403  1.0000
  C   C19       1.0  0.11064  0.79894  0.50214  1.0000
  C   C20       1.0  0.27637  0.90065  0.50212  1.0000
  C   C21       1.0  0.55464  0.99985  0.50507  1.0000
  C   C22       1.0  0.38806  0.09817  0.50703  1.0000
  C   C23       1.0  0.44378  0.99984  0.50508  1.0000
  C   C24       1.0  0.61038  0.09817  0.50702  1.0000
  C   C25       1.0  0.55549  0.19603  0.50739  1.0000
  C   C26       1.0  0.44294  0.19604  0.50741  1.0000
  C   C27       1.0  0.55606  0.80371  0.49478  1.0000
  C   C28       1.0  0.38806  0.90184  0.50121  1.0000
  C   C29       1.0  0.44233  0.80371  0.49477  1.0000
  C   C30       1.0  0.61034  0.90184  0.50119  1.0000
  C   C31       1.0  0.88897  0.99999  0.50500  1.0000
  C   C32       1.0  0.72189  0.09921  0.50624  1.0000
  C   C33       1.0  0.77742  0.99994  0.50483  1.0000
  C   C34       1.0  0.94324  0.10075  0.50562  1.0000
  C   C35       1.0  0.88727  0.20103  0.50546  1.0000
  C   C36       1.0  0.71492  0.29826  0.50436  1.0000
  C   C37       1.0  0.77472  0.20001  0.50588  1.0000
  C   C38       1.0  0.94267  0.30099  0.50450  1.0000
  C   C39       1.0  0.88473  0.39992  0.50243  1.0000
  C   C40       1.0  0.71356  0.49873  0.49311  1.0000
  C   C41       1.0  0.77111  0.39887  0.50110  1.0000
  C   C42       1.0  0.94220  0.49973  0.50069  1.0000
  C   C43       1.0  0.88466  0.59954  0.49901  1.0000
  C   C44       1.0  0.71630  0.70227  0.49433  1.0000
  C   C45       1.0  0.77117  0.60030  0.49473  1.0000
  C   C46       1.0  0.94271  0.69862  0.50092  1.0000
  C   C47       1.0  0.88778  0.79893  0.50215  1.0000
  C   C48       1.0  0.72203  0.90062  0.50212  1.0000
  C   C49       1.0  0.77567  0.80013  0.50019  1.0000
  C   C50       1.0  0.94333  0.89932  0.50404  1.0000
  N   N1        1.0  0.39262  0.29364  0.50520  1.0000
  N   N2        1.0  0.60581  0.29364  0.50521  1.0000
  N   N3        1.0  0.38898  0.49874  0.48273  1.0000
  N   N4        1.0  0.60946  0.49868  0.48270  1.0000
  N   N5        1.0  0.39007  0.70815  0.48828  1.0000
  N   N6        1.0  0.60838  0.70818  0.48828  1.0000
  Fe  Fe1       1.0  0.49925  0.40324  0.49650  1.0000
  Sc  Sc1       1.0  0.49917  0.59483  0.44435  1.0000
