data_image0
_chemical_formula_structural       C52N4FeTi
_chemical_formula_sum              "C52 N4 Fe1 Ti1"
_cell_length_a       12.7507
_cell_length_b       12.5123
_cell_length_c       19.9129
_cell_angle_alpha    90.0999
_cell_angle_beta     89.9996
_cell_angle_gamma    90.0001

_space_group_name_H-M_alt    "P 1"
_space_group_IT_number       1

loop_
  _space_group_symop_operation_xyz
  'x, y, z'

loop_
  _atom_site_type_symbol
  _atom_site_label
  _atom_site_symmetry_multiplicity
  _atom_site_fract_x
  _atom_site_fract_y
  _atom_site_fract_z
  _atom_site_occupancy
  C   C1        1.0  0.22057  0.99981  0.50451  1.0000
  C   C2        1.0  0.05493  0.10061  0.50455  1.0000
  C   C3        1.0  0.10955  0.99981  0.50422  1.0000
  C   C4        1.0  0.27618  0.09927  0.50547  1.0000
  C   C5        1.0  0.22292  0.20008  0.50455  1.0000
  C   C6        1.0  0.05517  0.30067  0.50341  1.0000
  C   C7        1.0  0.11090  0.20056  0.50429  1.0000
  C   C8        1.0  0.28180  0.29912  0.50250  1.0000
  C   C9        1.0  0.22424  0.39958  0.49997  1.0000
  C   C10       1.0  0.05573  0.50101  0.50060  1.0000
  C   C11       1.0  0.11243  0.40074  0.50166  1.0000
  C   C12       1.0  0.28101  0.49968  0.49354  1.0000
  C   C13       1.0  0.22584  0.60094  0.49595  1.0000
  C   C14       1.0  0.05531  0.69948  0.50096  1.0000
  C   C15       1.0  0.11285  0.60053  0.49952  1.0000
  C   C16       1.0  0.28234  0.70205  0.49588  1.0000
  C   C17       1.0  0.22282  0.80026  0.50079  1.0000
  C   C18       1.0  0.05503  0.89935  0.50333  1.0000
  C   C19       1.0  0.11078  0.79944  0.50194  1.0000
  C   C20       1.0  0.27633  0.90048  0.50275  1.0000
  C   C21       1.0  0.55473  0.99890  0.50533  1.0000
  C   C22       1.0  0.38726  0.09705  0.50637  1.0000
  C   C23       1.0  0.44370  0.99890  0.50532  1.0000
  C   C24       1.0  0.61117  0.09705  0.50637  1.0000
  C   C25       1.0  0.55553  0.19428  0.50596  1.0000
  C   C26       1.0  0.44289  0.19428  0.50596  1.0000
  C   C27       1.0  0.55583  0.80291  0.49737  1.0000
  C   C28       1.0  0.38808  0.90094  0.50251  1.0000
  C   C29       1.0  0.44259  0.80291  0.49737  1.0000
  C   C30       1.0  0.61034  0.90094  0.50252  1.0000
  C   C31       1.0  0.88888  0.99981  0.50423  1.0000
  C   C32       1.0  0.72225  0.09928  0.50547  1.0000
  C   C33       1.0  0.77786  0.99982  0.50452  1.0000
  C   C34       1.0  0.94349  0.10061  0.50455  1.0000
  C   C35       1.0  0.88753  0.20056  0.50430  1.0000
  C   C36       1.0  0.71663  0.29913  0.50250  1.0000
  C   C37       1.0  0.77551  0.20009  0.50456  1.0000
  C   C38       1.0  0.94326  0.30067  0.50342  1.0000
  C   C39       1.0  0.88600  0.40075  0.50166  1.0000
  C   C40       1.0  0.71741  0.49968  0.49354  1.0000
  C   C41       1.0  0.77418  0.39958  0.49997  1.0000
  C   C42       1.0  0.94270  0.50102  0.50060  1.0000
  C   C43       1.0  0.88557  0.60053  0.49952  1.0000
  C   C44       1.0  0.71609  0.70205  0.49589  1.0000
  C   C45       1.0  0.77259  0.60095  0.49595  1.0000
  C   C46       1.0  0.94312  0.69949  0.50096  1.0000
  C   C47       1.0  0.88764  0.79944  0.50194  1.0000
  C   C48       1.0  0.72209  0.90049  0.50276  1.0000
  C   C49       1.0  0.77560  0.80026  0.50080  1.0000
  C   C50       1.0  0.94339  0.89936  0.50333  1.0000
  C   C51       1.0  0.39318  0.29515  0.50284  1.0000
  C   C52       1.0  0.60525  0.29515  0.50284  1.0000
  N   N1        1.0  0.38495  0.49990  0.48298  1.0000
  N   N2        1.0  0.61348  0.49990  0.48298  1.0000
  N   N3        1.0  0.39055  0.70675  0.49144  1.0000
  N   N4        1.0  0.60787  0.70675  0.49145  1.0000
  Fe  Fe1       1.0  0.49922  0.40463  0.48785  1.0000
  Ti  Ti1       1.0  0.49921  0.58912  0.45917  1.0000
