data_image0
_chemical_formula_structural       C54N4CoFe
_chemical_formula_sum              "C54 N4 Co1 Fe1"
_cell_length_a       12.8955
_cell_length_b       12.3588
_cell_length_c       19.9376
_cell_angle_alpha    91.016
_cell_angle_beta     90.0725
_cell_angle_gamma    90.5187

_space_group_name_H-M_alt    "P 1"
_space_group_IT_number       1

loop_
  _space_group_symop_operation_xyz
  'x, y, z'

loop_
  _atom_site_type_symbol
  _atom_site_label
  _atom_site_symmetry_multiplicity
  _atom_site_fract_x
  _atom_site_fract_y
  _atom_site_fract_z
  _atom_site_occupancy
  C   C1        1.0  0.22090  0.00278  0.49553  1.0000
  C   C2        1.0  0.05543  0.10186  0.49315  1.0000
  C   C3        1.0  0.10990  0.00195  0.49368  1.0000
  C   C4        1.0  0.27745  0.10302  0.49698  1.0000
  C   C5        1.0  0.22358  0.20483  0.49895  1.0000
  C   C6        1.0  0.05568  0.30149  0.49439  1.0000
  C   C7        1.0  0.11198  0.20239  0.49537  1.0000
  C   C8        1.0  0.27996  0.30608  0.50515  1.0000
  C   C9        1.0  0.22062  0.40677  0.50606  1.0000
  C   C10       1.0  0.05394  0.50177  0.49647  1.0000
  C   C11       1.0  0.11019  0.40241  0.49762  1.0000
  C   C12       1.0  0.21826  0.60183  0.50853  1.0000
  C   C13       1.0  0.05324  0.70205  0.49451  1.0000
  C   C14       1.0  0.10893  0.60273  0.49866  1.0000
  C   C15       1.0  0.27447  0.70426  0.50860  1.0000
  C   C16       1.0  0.21900  0.80218  0.49914  1.0000
  C   C17       1.0  0.05370  0.90180  0.49267  1.0000
  C   C18       1.0  0.10845  0.80200  0.49471  1.0000
  C   C19       1.0  0.27543  0.90246  0.49777  1.0000
  C   C20       1.0  0.55421  0.99813  0.49692  1.0000
  C   C21       1.0  0.38834  0.10085  0.49684  1.0000
  C   C22       1.0  0.44322  0.00038  0.49673  1.0000
  C   C23       1.0  0.61073  0.09830  0.49567  1.0000
  C   C24       1.0  0.55614  0.19877  0.49810  1.0000
  C   C25       1.0  0.39340  0.30199  0.50698  1.0000
  C   C26       1.0  0.44538  0.20026  0.49932  1.0000
  C   C27       1.0  0.61248  0.29893  0.49950  1.0000
  C   C28       1.0  0.55671  0.39741  0.50922  1.0000
  C   C29       1.0  0.61335  0.49955  0.50884  1.0000
  C   C30       1.0  0.61105  0.69525  0.50596  1.0000
  C   C31       1.0  0.55156  0.79550  0.50482  1.0000
  C   C32       1.0  0.38620  0.90119  0.49897  1.0000
  C   C33       1.0  0.43834  0.79986  0.50642  1.0000
  C   C34       1.0  0.60811  0.89672  0.49876  1.0000
  C   C35       1.0  0.88751  0.00030  0.49179  1.0000
  C   C36       1.0  0.72161  0.09903  0.49383  1.0000
  C   C37       1.0  0.77614  0.99909  0.49313  1.0000
  C   C38       1.0  0.94404  0.10057  0.49185  1.0000
  C   C39       1.0  0.88867  0.20012  0.49195  1.0000
  C   C40       1.0  0.72299  0.29899  0.49507  1.0000
  C   C41       1.0  0.77782  0.19914  0.49292  1.0000
  C   C42       1.0  0.94459  0.30049  0.49248  1.0000
  C   C43       1.0  0.88886  0.40001  0.49304  1.0000
  C   C44       1.0  0.72242  0.49840  0.49899  1.0000
  C   C45       1.0  0.77824  0.39891  0.49485  1.0000
  C   C46       1.0  0.94374  0.50066  0.49386  1.0000
  C   C47       1.0  0.88767  0.60028  0.49385  1.0000
  C   C48       1.0  0.72141  0.69883  0.49757  1.0000
  C   C49       1.0  0.77746  0.59933  0.49660  1.0000
  C   C50       1.0  0.94254  0.70088  0.49284  1.0000
  C   C51       1.0  0.88689  0.80041  0.49229  1.0000
  C   C52       1.0  0.71953  0.89872  0.49527  1.0000
  C   C53       1.0  0.77588  0.79951  0.49424  1.0000
  C   C54       1.0  0.94284  0.90075  0.49175  1.0000
  N   N1        1.0  0.26870  0.50519  0.51725  1.0000
  N   N2        1.0  0.45117  0.39439  0.51838  1.0000
  N   N3        1.0  0.56323  0.59729  0.51781  1.0000
  N   N4        1.0  0.38045  0.70801  0.51770  1.0000
  Co  Co1       1.0  0.37488  0.47925  0.58667  1.0000
  Fe  Fe1       1.0  0.45590  0.62545  0.58692  1.0000
