data_image0
_chemical_formula_structural       C52N4FeSc
_chemical_formula_sum              "C52 N4 Fe1 Sc1"
_cell_length_a       13.1076
_cell_length_b       12.2959
_cell_length_c       19.7114
_cell_angle_alpha    90.0043
_cell_angle_beta     89.9443
_cell_angle_gamma    90.1087

_space_group_name_H-M_alt    "P 1"
_space_group_IT_number       1

loop_
  _space_group_symop_operation_xyz
  'x, y, z'

loop_
  _atom_site_type_symbol
  _atom_site_label
  _atom_site_symmetry_multiplicity
  _atom_site_fract_x
  _atom_site_fract_y
  _atom_site_fract_z
  _atom_site_occupancy
  C   C1        1.0  0.22494  0.00090  0.50011  1.0000
  C   C2        1.0  0.05671  0.09982  0.50095  1.0000
  C   C3        1.0  0.11314  0.00068  0.50083  1.0000
  C   C4        1.0  0.27984  0.10386  0.50099  1.0000
  C   C5        1.0  0.22111  0.20501  0.50183  1.0000
  C   C6        1.0  0.05118  0.29874  0.50145  1.0000
  C   C7        1.0  0.11033  0.20102  0.50122  1.0000
  C   C8        1.0  0.20921  0.39956  0.50272  1.0000
  C   C9        1.0  0.04846  0.50017  0.50214  1.0000
  C   C10       1.0  0.10219  0.39982  0.50203  1.0000
  C   C11       1.0  0.26327  0.50062  0.50255  1.0000
  C   C12       1.0  0.20951  0.60157  0.49950  1.0000
  C   C13       1.0  0.05102  0.70170  0.50133  1.0000
  C   C14       1.0  0.10207  0.60056  0.50133  1.0000
  C   C15       1.0  0.21967  0.79734  0.49782  1.0000
  C   C16       1.0  0.05625  0.90115  0.50148  1.0000
  C   C17       1.0  0.10936  0.80047  0.50083  1.0000
  C   C18       1.0  0.27931  0.89762  0.49830  1.0000
  C   C19       1.0  0.55707  0.99908  0.50093  1.0000
  C   C20       1.0  0.39227  0.10377  0.50071  1.0000
  C   C21       1.0  0.44616  0.00026  0.50051  1.0000
  C   C22       1.0  0.61440  0.09840  0.50092  1.0000
  C   C23       1.0  0.56053  0.19805  0.50026  1.0000
  C   C24       1.0  0.61640  0.30037  0.49950  1.0000
  C   C25       1.0  0.61368  0.50051  0.49750  1.0000
  C   C26       1.0  0.61648  0.69730  0.49801  1.0000
  C   C27       1.0  0.55853  0.79969  0.49862  1.0000
  C   C28       1.0  0.39200  0.89693  0.49864  1.0000
  C   C29       1.0  0.61402  0.89957  0.50073  1.0000
  C   C30       1.0  0.89056  0.00005  0.50147  1.0000
  C   C31       1.0  0.72443  0.09874  0.50099  1.0000
  C   C32       1.0  0.78015  0.99977  0.50139  1.0000
  C   C33       1.0  0.94612  0.09963  0.50105  1.0000
  C   C34       1.0  0.88896  0.19846  0.50090  1.0000
  C   C35       1.0  0.72505  0.29902  0.50025  1.0000
  C   C36       1.0  0.77961  0.19855  0.50073  1.0000
  C   C37       1.0  0.94214  0.29898  0.50117  1.0000
  C   C38       1.0  0.88728  0.39926  0.50148  1.0000
  C   C39       1.0  0.72364  0.49948  0.50011  1.0000
  C   C40       1.0  0.77853  0.39949  0.50080  1.0000
  C   C41       1.0  0.94076  0.50002  0.50199  1.0000
  C   C42       1.0  0.88738  0.60046  0.50183  1.0000
  C   C43       1.0  0.72520  0.70016  0.50064  1.0000
  C   C44       1.0  0.77866  0.59980  0.50088  1.0000
  C   C45       1.0  0.94204  0.70120  0.50198  1.0000
  C   C46       1.0  0.88879  0.80146  0.50208  1.0000
  C   C47       1.0  0.72410  0.90044  0.50140  1.0000
  C   C48       1.0  0.77938  0.80109  0.50166  1.0000
  C   C49       1.0  0.94583  0.90076  0.50191  1.0000
  C   C50       1.0  0.45169  0.20137  0.50027  1.0000
  C   C51       1.0  0.55919  0.39850  0.49801  1.0000
  C   C52       1.0  0.44996  0.79860  0.49656  1.0000
  N   N1        1.0  0.26789  0.30637  0.50311  1.0000
  N   N2        1.0  0.26575  0.69662  0.49396  1.0000
  N   N3        1.0  0.36656  0.49711  0.50340  1.0000
  N   N4        1.0  0.56467  0.60065  0.49430  1.0000
  Fe  Fe1       1.0  0.41571  0.35448  0.50313  1.0000
  Sc  Sc1       1.0  0.41127  0.63979  0.45877  1.0000
