data_image0
_chemical_formula_structural       C52N5FeMn
_chemical_formula_sum              "C52 N5 Fe1 Mn1"
_cell_length_a       12.8067
_cell_length_b       12.4395
_cell_length_c       19.948
_cell_angle_alpha    91.255
_cell_angle_beta     90.5909
_cell_angle_gamma    90.4032

_space_group_name_H-M_alt    "P 1"
_space_group_IT_number       1

loop_
  _space_group_symop_operation_xyz
  'x, y, z'

loop_
  _atom_site_type_symbol
  _atom_site_label
  _atom_site_symmetry_multiplicity
  _atom_site_fract_x
  _atom_site_fract_y
  _atom_site_fract_z
  _atom_site_occupancy
  C   C1        1.0  0.22247  0.00236  0.49821  1.0000
  C   C2        1.0  0.05756  0.10223  0.49714  1.0000
  C   C3        1.0  0.11112  0.00165  0.49734  1.0000
  C   C4        1.0  0.27830  0.10351  0.50016  1.0000
  C   C5        1.0  0.22520  0.20529  0.50297  1.0000
  C   C6        1.0  0.05753  0.30291  0.49904  1.0000
  C   C7        1.0  0.11332  0.20343  0.49974  1.0000
  C   C8        1.0  0.28208  0.30670  0.50877  1.0000
  C   C9        1.0  0.22341  0.40799  0.50973  1.0000
  C   C10       1.0  0.05450  0.50351  0.50107  1.0000
  C   C11       1.0  0.11179  0.40407  0.50230  1.0000
  C   C12       1.0  0.22193  0.60344  0.50580  1.0000
  C   C13       1.0  0.05336  0.70174  0.49779  1.0000
  C   C14       1.0  0.11012  0.60358  0.50106  1.0000
  C   C15       1.0  0.28052  0.70262  0.50128  1.0000
  C   C16       1.0  0.22254  0.80106  0.49815  1.0000
  C   C17       1.0  0.05537  0.90119  0.49628  1.0000
  C   C18       1.0  0.11034  0.80095  0.49736  1.0000
  C   C19       1.0  0.27692  0.90273  0.49746  1.0000
  C   C20       1.0  0.55516  0.00118  0.49435  1.0000
  C   C21       1.0  0.38902  0.10149  0.49870  1.0000
  C   C22       1.0  0.44429  0.00201  0.49601  1.0000
  C   C23       1.0  0.61237  0.09925  0.49471  1.0000
  C   C24       1.0  0.55739  0.19732  0.49881  1.0000
  C   C25       1.0  0.39471  0.30091  0.50978  1.0000
  C   C26       1.0  0.44619  0.20006  0.50147  1.0000
  C   C27       1.0  0.61531  0.29440  0.50076  1.0000
  C   C28       1.0  0.56155  0.39060  0.50993  1.0000
  C   C29       1.0  0.55421  0.80409  0.49592  1.0000
  C   C30       1.0  0.38835  0.90254  0.49660  1.0000
  C   C31       1.0  0.44238  0.80350  0.49690  1.0000
  C   C32       1.0  0.60995  0.90229  0.49407  1.0000
  C   C33       1.0  0.88983  0.00064  0.49386  1.0000
  C   C34       1.0  0.72364  0.09977  0.49345  1.0000
  C   C35       1.0  0.77822  0.00010  0.49301  1.0000
  C   C36       1.0  0.94621  0.10095  0.49486  1.0000
  C   C37       1.0  0.89139  0.20079  0.49490  1.0000
  C   C38       1.0  0.72549  0.29783  0.49766  1.0000
  C   C39       1.0  0.78033  0.19917  0.49454  1.0000
  C   C40       1.0  0.94571  0.30181  0.49681  1.0000
  C   C41       1.0  0.88909  0.40134  0.49824  1.0000
  C   C42       1.0  0.71778  0.49679  0.50341  1.0000
  C   C43       1.0  0.77779  0.39942  0.49973  1.0000
  C   C44       1.0  0.94240  0.50257  0.49926  1.0000
  C   C45       1.0  0.88356  0.60116  0.49858  1.0000
  C   C46       1.0  0.71434  0.70160  0.49812  1.0000
  C   C47       1.0  0.76975  0.60001  0.50011  1.0000
  C   C48       1.0  0.94094  0.70040  0.49694  1.0000
  C   C49       1.0  0.88626  0.80015  0.49547  1.0000
  C   C50       1.0  0.72134  0.90112  0.49377  1.0000
  C   C51       1.0  0.77432  0.80009  0.49545  1.0000
  C   C52       1.0  0.94353  0.90028  0.49492  1.0000
  N   N1        1.0  0.27306  0.50688  0.51713  1.0000
  N   N2        1.0  0.45596  0.39231  0.51989  1.0000
  N   N3        1.0  0.61062  0.48880  0.51017  1.0000
  N   N4        1.0  0.39039  0.70471  0.50044  1.0000
  N   N5        1.0  0.60623  0.70658  0.49802  1.0000
  Fe  Fe1       1.0  0.39816  0.50964  0.57415  1.0000
  Mn  Mn1       1.0  0.49975  0.59602  0.50928  1.0000
