data_image0
_chemical_formula_structural       C54N2CoFe
_chemical_formula_sum              "C54 N2 Co1 Fe1"
_cell_length_a       12.6535
_cell_length_b       12.538
_cell_length_c       20.0247
_cell_angle_alpha    89.9954
_cell_angle_beta     90.0381
_cell_angle_gamma    89.8324

_space_group_name_H-M_alt    "P 1"
_space_group_IT_number       1

loop_
  _space_group_symop_operation_xyz
  'x, y, z'

loop_
  _atom_site_type_symbol
  _atom_site_label
  _atom_site_symmetry_multiplicity
  _atom_site_fract_x
  _atom_site_fract_y
  _atom_site_fract_z
  _atom_site_occupancy
  C   C1        1.0  0.22144  0.99791  0.49995  1.0000
  C   C2        1.0  0.05394  0.09815  0.49996  1.0000
  C   C3        1.0  0.10996  0.99831  0.49996  1.0000
  C   C4        1.0  0.27611  0.09688  0.49997  1.0000
  C   C5        1.0  0.22031  0.19525  0.50009  1.0000
  C   C6        1.0  0.05434  0.29753  0.50009  1.0000
  C   C7        1.0  0.10888  0.19715  0.50004  1.0000
  C   C8        1.0  0.27610  0.29356  0.50031  1.0000
  C   C9        1.0  0.05997  0.49753  0.50006  1.0000
  C   C10       1.0  0.11385  0.39506  0.50019  1.0000
  C   C11       1.0  0.05981  0.69753  0.49998  1.0000
  C   C12       1.0  0.11845  0.59705  0.49999  1.0000
  C   C13       1.0  0.28012  0.70198  0.49996  1.0000
  C   C14       1.0  0.22374  0.80009  0.49997  1.0000
  C   C15       1.0  0.05609  0.89841  0.49998  1.0000
  C   C16       1.0  0.11224  0.79861  0.49998  1.0000
  C   C17       1.0  0.27786  0.89960  0.49996  1.0000
  C   C18       1.0  0.55579  0.99943  0.49990  1.0000
  C   C19       1.0  0.38735  0.09798  0.49995  1.0000
  C   C20       1.0  0.44405  0.99900  0.49991  1.0000
  C   C21       1.0  0.60997  0.09899  0.49993  1.0000
  C   C22       1.0  0.55375  0.19717  0.50006  1.0000
  C   C23       1.0  0.44041  0.19818  0.50009  1.0000
  C   C24       1.0  0.55732  0.60525  0.50010  1.0000
  C   C25       1.0  0.39282  0.70062  0.50001  1.0000
  C   C26       1.0  0.61310  0.70393  0.50003  1.0000
  C   C27       1.0  0.55746  0.80219  0.50000  1.0000
  C   C28       1.0  0.38963  0.89979  0.49996  1.0000
  C   C29       1.0  0.44611  0.80066  0.50000  1.0000
  C   C30       1.0  0.61210  0.90113  0.49994  1.0000
  C   C31       1.0  0.88885  0.99971  0.49996  1.0000
  C   C32       1.0  0.72155  0.10056  0.49996  1.0000
  C   C33       1.0  0.77765  0.00068  0.49995  1.0000
  C   C34       1.0  0.94240  0.09987  0.49996  1.0000
  C   C35       1.0  0.88656  0.20045  0.49999  1.0000
  C   C36       1.0  0.71562  0.30195  0.50016  1.0000
  C   C37       1.0  0.77428  0.20146  0.50003  1.0000
  C   C38       1.0  0.94236  0.29981  0.50004  1.0000
  C   C39       1.0  0.88679  0.40049  0.50007  1.0000
  C   C40       1.0  0.72068  0.50458  0.50014  1.0000
  C   C41       1.0  0.77404  0.40169  0.50015  1.0000
  C   C42       1.0  0.94716  0.49879  0.50003  1.0000
  C   C43       1.0  0.89183  0.59953  0.50000  1.0000
  C   C44       1.0  0.72462  0.70194  0.50000  1.0000
  C   C45       1.0  0.77987  0.60198  0.50003  1.0000
  C   C46       1.0  0.94758  0.69874  0.49998  1.0000
  C   C47       1.0  0.89140  0.79929  0.49998  1.0000
  C   C48       1.0  0.72374  0.90074  0.49995  1.0000
  C   C49       1.0  0.77974  0.80106  0.49997  1.0000
  C   C50       1.0  0.94485  0.89943  0.49998  1.0000
  C   C51       1.0  0.23110  0.60082  0.49996  1.0000
  C   C52       1.0  0.38784  0.29891  0.50035  1.0000
  C   C53       1.0  0.60331  0.29775  0.50025  1.0000
  C   C54       1.0  0.44408  0.59851  0.50008  1.0000
  N   N1        1.0  0.22084  0.38968  0.50037  1.0000
  N   N2        1.0  0.61411  0.51092  0.50020  1.0000
  Co  Co1       1.0  0.32932  0.48651  0.50010  1.0000
  Fe  Fe1       1.0  0.50109  0.41479  0.50052  1.0000
