data_image0
_chemical_formula_structural       C54N2FeCr
_chemical_formula_sum              "C54 N2 Fe1 Cr1"
_cell_length_a       12.6979
_cell_length_b       12.5615
_cell_length_c       19.9177
_cell_angle_alpha    89.9981
_cell_angle_beta     90.0397
_cell_angle_gamma    89.6418

_space_group_name_H-M_alt    "P 1"
_space_group_IT_number       1

loop_
  _space_group_symop_operation_xyz
  'x, y, z'

loop_
  _atom_site_type_symbol
  _atom_site_label
  _atom_site_symmetry_multiplicity
  _atom_site_fract_x
  _atom_site_fract_y
  _atom_site_fract_z
  _atom_site_occupancy
  C   C1        1.0  0.22211  0.99757  0.49995  1.0000
  C   C2        1.0  0.05403  0.09826  0.49995  1.0000
  C   C3        1.0  0.11042  0.99844  0.49996  1.0000
  C   C4        1.0  0.27694  0.09620  0.49998  1.0000
  C   C5        1.0  0.22047  0.19405  0.50006  1.0000
  C   C6        1.0  0.05289  0.29748  0.50007  1.0000
  C   C7        1.0  0.10868  0.19714  0.50001  1.0000
  C   C8        1.0  0.27626  0.29181  0.50032  1.0000
  C   C9        1.0  0.05701  0.49789  0.50002  1.0000
  C   C10       1.0  0.11006  0.39582  0.50015  1.0000
  C   C11       1.0  0.05926  0.69806  0.50000  1.0000
  C   C12       1.0  0.11673  0.59763  0.50000  1.0000
  C   C13       1.0  0.27985  0.70081  0.50008  1.0000
  C   C14       1.0  0.22406  0.79958  0.50003  1.0000
  C   C15       1.0  0.05661  0.89870  0.49998  1.0000
  C   C16       1.0  0.11253  0.79865  0.50001  1.0000
  C   C17       1.0  0.27816  0.89901  0.49996  1.0000
  C   C18       1.0  0.55577  0.99972  0.49986  1.0000
  C   C19       1.0  0.38867  0.09795  0.49997  1.0000
  C   C20       1.0  0.44430  0.99870  0.49990  1.0000
  C   C21       1.0  0.61062  0.09883  0.49990  1.0000
  C   C22       1.0  0.55582  0.19725  0.50011  1.0000
  C   C23       1.0  0.44290  0.19811  0.50011  1.0000
  C   C24       1.0  0.55962  0.60809  0.50006  1.0000
  C   C25       1.0  0.39324  0.69982  0.50010  1.0000
  C   C26       1.0  0.61432  0.70590  0.49995  1.0000
  C   C27       1.0  0.55756  0.80312  0.49990  1.0000
  C   C28       1.0  0.38968  0.89944  0.49991  1.0000
  C   C29       1.0  0.44616  0.80023  0.49995  1.0000
  C   C30       1.0  0.61228  0.90169  0.49986  1.0000
  C   C31       1.0  0.88918  0.99968  0.49995  1.0000
  C   C32       1.0  0.72188  0.09971  0.49993  1.0000
  C   C33       1.0  0.77798  0.00035  0.49992  1.0000
  C   C34       1.0  0.94230  0.09971  0.49994  1.0000
  C   C35       1.0  0.88598  0.20006  0.49993  1.0000
  C   C36       1.0  0.71425  0.29972  0.50019  1.0000
  C   C37       1.0  0.77392  0.20062  0.49997  1.0000
  C   C38       1.0  0.94104  0.29926  0.49999  1.0000
  C   C39       1.0  0.88519  0.39964  0.50001  1.0000
  C   C40       1.0  0.72135  0.50513  0.50008  1.0000
  C   C41       1.0  0.77187  0.40078  0.50014  1.0000
  C   C42       1.0  0.94503  0.49893  0.49997  1.0000
  C   C43       1.0  0.89125  0.60032  0.49993  1.0000
  C   C44       1.0  0.72541  0.70303  0.49992  1.0000
  C   C45       1.0  0.78020  0.60271  0.49993  1.0000
  C   C46       1.0  0.94726  0.69936  0.49997  1.0000
  C   C47       1.0  0.89169  0.79987  0.49996  1.0000
  C   C48       1.0  0.72375  0.90098  0.49989  1.0000
  C   C49       1.0  0.78020  0.80161  0.49992  1.0000
  C   C50       1.0  0.94540  0.89969  0.49997  1.0000
  C   C51       1.0  0.21963  0.38952  0.50025  1.0000
  C   C52       1.0  0.22899  0.60061  0.49997  1.0000
  C   C53       1.0  0.38888  0.29809  0.50047  1.0000
  C   C54       1.0  0.44795  0.59918  0.50014  1.0000
  N   N1        1.0  0.60506  0.29515  0.50050  1.0000
  N   N2        1.0  0.61583  0.51336  0.50021  1.0000
  Fe  Fe1       1.0  0.33058  0.48209  0.49939  1.0000
  Cr  Cr1       1.0  0.49724  0.42049  0.50196  1.0000
