data_image0
_chemical_formula_structural       C54N2CuFe
_chemical_formula_sum              "C54 N2 Cu1 Fe1"
_cell_length_a       12.8062
_cell_length_b       12.4566
_cell_length_c       19.9156
_cell_angle_alpha    89.9942
_cell_angle_beta     90.0325
_cell_angle_gamma    89.5543

_space_group_name_H-M_alt    "P 1"
_space_group_IT_number       1

loop_
  _space_group_symop_operation_xyz
  'x, y, z'

loop_
  _atom_site_type_symbol
  _atom_site_label
  _atom_site_symmetry_multiplicity
  _atom_site_fract_x
  _atom_site_fract_y
  _atom_site_fract_z
  _atom_site_occupancy
  C   C1        1.0  0.22226  0.99787  0.50002  1.0000
  C   C2        1.0  0.05469  0.09898  0.49998  1.0000
  C   C3        1.0  0.11085  0.99878  0.50000  1.0000
  C   C4        1.0  0.27762  0.09721  0.50005  1.0000
  C   C5        1.0  0.22193  0.19642  0.50007  1.0000
  C   C6        1.0  0.05417  0.29834  0.49999  1.0000
  C   C7        1.0  0.11036  0.19841  0.50001  1.0000
  C   C8        1.0  0.27962  0.29528  0.50015  1.0000
  C   C9        1.0  0.05522  0.49834  0.49999  1.0000
  C   C10       1.0  0.11182  0.39755  0.50001  1.0000
  C   C11       1.0  0.05729  0.69862  0.49999  1.0000
  C   C12       1.0  0.11357  0.59763  0.50000  1.0000
  C   C13       1.0  0.27937  0.69862  0.50007  1.0000
  C   C14       1.0  0.22328  0.79875  0.50003  1.0000
  C   C15       1.0  0.05632  0.89905  0.49999  1.0000
  C   C16       1.0  0.11214  0.79852  0.50001  1.0000
  C   C17       1.0  0.27812  0.89847  0.50002  1.0000
  C   C18       1.0  0.55571  0.99937  0.49993  1.0000
  C   C19       1.0  0.38879  0.09796  0.50006  1.0000
  C   C20       1.0  0.44434  0.99819  0.49998  1.0000
  C   C21       1.0  0.61124  0.09865  0.49999  1.0000
  C   C22       1.0  0.55614  0.19736  0.50014  1.0000
  C   C23       1.0  0.44365  0.19823  0.50016  1.0000
  C   C24       1.0  0.55973  0.60572  0.50019  1.0000
  C   C25       1.0  0.39310  0.69729  0.50010  1.0000
  C   C26       1.0  0.61406  0.70430  0.50005  1.0000
  C   C27       1.0  0.55699  0.80188  0.49997  1.0000
  C   C28       1.0  0.38954  0.89857  0.49999  1.0000
  C   C29       1.0  0.44606  0.79884  0.50001  1.0000
  C   C30       1.0  0.61211  0.90110  0.49990  1.0000
  C   C31       1.0  0.88936  0.99990  0.49993  1.0000
  C   C32       1.0  0.72204  0.09967  0.49996  1.0000
  C   C33       1.0  0.77832  0.00022  0.49990  1.0000
  C   C34       1.0  0.94327  0.10006  0.49996  1.0000
  C   C35       1.0  0.88653  0.20046  0.49999  1.0000
  C   C36       1.0  0.71430  0.29972  0.50015  1.0000
  C   C37       1.0  0.77427  0.20081  0.50003  1.0000
  C   C38       1.0  0.94213  0.29951  0.50000  1.0000
  C   C39       1.0  0.88478  0.39935  0.50004  1.0000
  C   C40       1.0  0.72010  0.50390  0.50018  1.0000
  C   C41       1.0  0.77214  0.40003  0.50014  1.0000
  C   C42       1.0  0.94416  0.49878  0.50000  1.0000
  C   C43       1.0  0.88978  0.60008  0.50000  1.0000
  C   C44       1.0  0.72477  0.70242  0.50001  1.0000
  C   C45       1.0  0.77895  0.60185  0.50006  1.0000
  C   C46       1.0  0.94584  0.69936  0.49997  1.0000
  C   C47       1.0  0.89072  0.80010  0.49995  1.0000
  C   C48       1.0  0.72340  0.90089  0.49989  1.0000
  C   C49       1.0  0.77978  0.80131  0.49993  1.0000
  C   C50       1.0  0.94541  0.89984  0.49995  1.0000
  C   C51       1.0  0.22053  0.39231  0.50009  1.0000
  C   C52       1.0  0.22372  0.60135  0.50005  1.0000
  C   C53       1.0  0.39229  0.29935  0.50024  1.0000
  C   C54       1.0  0.44922  0.59769  0.50021  1.0000
  N   N1        1.0  0.60455  0.29557  0.50023  1.0000
  N   N2        1.0  0.61470  0.50974  0.50029  1.0000
  Cu  Cu1       1.0  0.32946  0.49056  0.50016  1.0000
  Fe  Fe1       1.0  0.50170  0.41649  0.50032  1.0000
