data_image0
_chemical_formula_structural       C54N2Fe2
_chemical_formula_sum              "C54 N2 Fe2"
_cell_length_a       12.672
_cell_length_b       12.5509
_cell_length_c       19.9748
_cell_angle_alpha    89.9968
_cell_angle_beta     90.0465
_cell_angle_gamma    89.8012

_space_group_name_H-M_alt    "P 1"
_space_group_IT_number       1

loop_
  _space_group_symop_operation_xyz
  'x, y, z'

loop_
  _atom_site_type_symbol
  _atom_site_label
  _atom_site_symmetry_multiplicity
  _atom_site_fract_x
  _atom_site_fract_y
  _atom_site_fract_z
  _atom_site_occupancy
  C   C1        1.0  0.22149  0.99768  0.50015  1.0000
  C   C2        1.0  0.05378  0.09771  0.49996  1.0000
  C   C3        1.0  0.10995  0.99824  0.50013  1.0000
  C   C4        1.0  0.27640  0.09644  0.50004  1.0000
  C   C5        1.0  0.21987  0.19381  0.49983  1.0000
  C   C6        1.0  0.05473  0.29683  0.49967  1.0000
  C   C7        1.0  0.10873  0.19633  0.49977  1.0000
  C   C8        1.0  0.27468  0.29156  0.50008  1.0000
  C   C9        1.0  0.06228  0.49856  0.49962  1.0000
  C   C10       1.0  0.11390  0.39477  0.49970  1.0000
  C   C11       1.0  0.05980  0.69851  0.49982  1.0000
  C   C12       1.0  0.11941  0.59942  0.49968  1.0000
  C   C13       1.0  0.27775  0.70223  0.49999  1.0000
  C   C14       1.0  0.22283  0.80055  0.50006  1.0000
  C   C15       1.0  0.05552  0.89883  0.50011  1.0000
  C   C16       1.0  0.11160  0.79958  0.50001  1.0000
  C   C17       1.0  0.27790  0.89961  0.50016  1.0000
  C   C18       1.0  0.55566  0.00010  0.49985  1.0000
  C   C19       1.0  0.38774  0.09927  0.50015  1.0000
  C   C20       1.0  0.44411  0.99986  0.50002  1.0000
  C   C21       1.0  0.60983  0.10002  0.50003  1.0000
  C   C22       1.0  0.55425  0.19930  0.50050  1.0000
  C   C23       1.0  0.44068  0.20028  0.50041  1.0000
  C   C24       1.0  0.55532  0.60417  0.50036  1.0000
  C   C25       1.0  0.39021  0.70065  0.50018  1.0000
  C   C26       1.0  0.61182  0.70302  0.49984  1.0000
  C   C27       1.0  0.55639  0.80181  0.49979  1.0000
  C   C28       1.0  0.38945  0.90034  0.50005  1.0000
  C   C29       1.0  0.44479  0.80071  0.50000  1.0000
  C   C30       1.0  0.61133  0.90102  0.49968  1.0000
  C   C31       1.0  0.88826  0.99936  0.49990  1.0000
  C   C32       1.0  0.72137  0.10055  0.49993  1.0000
  C   C33       1.0  0.77701  0.00028  0.49977  1.0000
  C   C34       1.0  0.94227  0.09930  0.49992  1.0000
  C   C35       1.0  0.88711  0.19986  0.49989  1.0000
  C   C36       1.0  0.71779  0.30162  0.50050  1.0000
  C   C37       1.0  0.77491  0.20111  0.50008  1.0000
  C   C38       1.0  0.94346  0.29894  0.49980  1.0000
  C   C39       1.0  0.88952  0.40014  0.49992  1.0000
  C   C40       1.0  0.72421  0.50263  0.50027  1.0000
  C   C41       1.0  0.77760  0.40096  0.50030  1.0000
  C   C42       1.0  0.94896  0.49953  0.49976  1.0000
  C   C43       1.0  0.89271  0.59971  0.49981  1.0000
  C   C44       1.0  0.72404  0.70097  0.49976  1.0000
  C   C45       1.0  0.78071  0.60126  0.49992  1.0000
  C   C46       1.0  0.94760  0.69900  0.49981  1.0000
  C   C47       1.0  0.89090  0.79908  0.49983  1.0000
  C   C48       1.0  0.72304  0.90028  0.49965  1.0000
  C   C49       1.0  0.77895  0.80020  0.49969  1.0000
  C   C50       1.0  0.94413  0.89931  0.49996  1.0000
  C   C51       1.0  0.38544  0.30012  0.50060  1.0000
  C   C52       1.0  0.60542  0.29960  0.50100  1.0000
  C   C53       1.0  0.61486  0.50752  0.50041  1.0000
  C   C54       1.0  0.44177  0.59919  0.50060  1.0000
  N   N1        1.0  0.21976  0.38733  0.50009  1.0000
  N   N2        1.0  0.22883  0.60433  0.49973  1.0000
  Fe  Fe1       1.0  0.33122  0.48360  0.50022  1.0000
  Fe  Fe2       1.0  0.50223  0.41858  0.50166  1.0000
