data_image0
_chemical_formula_structural       C54N2FeMn
_chemical_formula_sum              "C54 N2 Fe1 Mn1"
_cell_length_a       12.6697
_cell_length_b       12.5405
_cell_length_c       19.9954
_cell_angle_alpha    90.0416
_cell_angle_beta     90.0937
_cell_angle_gamma    89.6718

_space_group_name_H-M_alt    "P 1"
_space_group_IT_number       1

loop_
  _space_group_symop_operation_xyz
  'x, y, z'

loop_
  _atom_site_type_symbol
  _atom_site_label
  _atom_site_symmetry_multiplicity
  _atom_site_fract_x
  _atom_site_fract_y
  _atom_site_fract_z
  _atom_site_occupancy
  C   C1        1.0  0.22145  0.99768  0.49996  1.0000
  C   C2        1.0  0.05350  0.09766  0.50035  1.0000
  C   C3        1.0  0.10996  0.99803  0.50011  1.0000
  C   C4        1.0  0.27586  0.09652  0.50021  1.0000
  C   C5        1.0  0.21925  0.19420  0.50038  1.0000
  C   C6        1.0  0.05312  0.29672  0.50039  1.0000
  C   C7        1.0  0.10790  0.19638  0.50038  1.0000
  C   C8        1.0  0.27401  0.29226  0.50057  1.0000
  C   C9        1.0  0.05972  0.49732  0.49991  1.0000
  C   C10       1.0  0.11157  0.39418  0.50018  1.0000
  C   C11       1.0  0.06004  0.69765  0.49965  1.0000
  C   C12       1.0  0.11839  0.59713  0.49962  1.0000
  C   C13       1.0  0.28052  0.70206  0.49928  1.0000
  C   C14       1.0  0.22416  0.80014  0.49945  1.0000
  C   C15       1.0  0.05623  0.89829  0.49993  1.0000
  C   C16       1.0  0.11259  0.79856  0.49966  1.0000
  C   C17       1.0  0.27810  0.89952  0.49955  1.0000
  C   C18       1.0  0.55560  0.99968  0.49975  1.0000
  C   C19       1.0  0.38718  0.09841  0.50025  1.0000
  C   C20       1.0  0.44396  0.99922  0.49973  1.0000
  C   C21       1.0  0.60955  0.09919  0.50046  1.0000
  C   C22       1.0  0.55339  0.19757  0.50098  1.0000
  C   C23       1.0  0.43991  0.19888  0.50075  1.0000
  C   C24       1.0  0.55869  0.60635  0.49950  1.0000
  C   C25       1.0  0.39340  0.70050  0.49918  1.0000
  C   C26       1.0  0.61400  0.70478  0.49913  1.0000
  C   C27       1.0  0.55781  0.80259  0.49896  1.0000
  C   C28       1.0  0.38976  0.89990  0.49932  1.0000
  C   C29       1.0  0.44644  0.80065  0.49902  1.0000
  C   C30       1.0  0.61220  0.90144  0.49927  1.0000
  C   C31       1.0  0.88857  0.99964  0.50021  1.0000
  C   C32       1.0  0.72115  0.10074  0.50055  1.0000
  C   C33       1.0  0.77740  0.00085  0.50010  1.0000
  C   C34       1.0  0.94201  0.09952  0.50047  1.0000
  C   C35       1.0  0.88624  0.20000  0.50070  1.0000
  C   C36       1.0  0.71635  0.30193  0.50115  1.0000
  C   C37       1.0  0.77431  0.20132  0.50090  1.0000
  C   C38       1.0  0.94169  0.29934  0.50058  1.0000
  C   C39       1.0  0.88711  0.40048  0.50051  1.0000
  C   C40       1.0  0.72273  0.50520  0.50029  1.0000
  C   C41       1.0  0.77467  0.40198  0.50080  1.0000
  C   C42       1.0  0.94721  0.49883  0.50007  1.0000
  C   C43       1.0  0.89249  0.59991  0.49982  1.0000
  C   C44       1.0  0.72542  0.70256  0.49936  1.0000
  C   C45       1.0  0.78103  0.60258  0.49977  1.0000
  C   C46       1.0  0.94795  0.69909  0.49968  1.0000
  C   C47       1.0  0.89174  0.79953  0.49968  1.0000
  C   C48       1.0  0.72370  0.90104  0.49952  1.0000
  C   C49       1.0  0.78011  0.80142  0.49943  1.0000
  C   C50       1.0  0.94497  0.89948  0.49994  1.0000
  C   C51       1.0  0.23088  0.60132  0.49942  1.0000
  C   C52       1.0  0.38550  0.29936  0.50089  1.0000
  C   C53       1.0  0.60464  0.29736  0.50140  1.0000
  C   C54       1.0  0.44582  0.59852  0.49948  1.0000
  N   N1        1.0  0.21794  0.38749  0.50035  1.0000
  N   N2        1.0  0.61670  0.51255  0.50019  1.0000
  Fe  Fe1       1.0  0.32672  0.48284  0.49977  1.0000
  Mn  Mn1       1.0  0.50300  0.41721  0.50155  1.0000
