data_image0
_chemical_formula_structural       C54N2NiFe
_chemical_formula_sum              "C54 N2 Ni1 Fe1"
_cell_length_a       12.6617
_cell_length_b       12.5378
_cell_length_c       20.0118
_cell_angle_alpha    89.9943
_cell_angle_beta     90.0331
_cell_angle_gamma    89.8995

_space_group_name_H-M_alt    "P 1"
_space_group_IT_number       1

loop_
  _space_group_symop_operation_xyz
  'x, y, z'

loop_
  _atom_site_type_symbol
  _atom_site_label
  _atom_site_symmetry_multiplicity
  _atom_site_fract_x
  _atom_site_fract_y
  _atom_site_fract_z
  _atom_site_occupancy
  C   C1        1.0  0.22235  0.99812  0.50002  1.0000
  C   C2        1.0  0.05494  0.09910  0.49998  1.0000
  C   C3        1.0  0.11060  0.99897  0.50000  1.0000
  C   C4        1.0  0.27732  0.09736  0.50005  1.0000
  C   C5        1.0  0.22221  0.19648  0.50007  1.0000
  C   C6        1.0  0.05436  0.29857  0.49998  1.0000
  C   C7        1.0  0.11018  0.19852  0.50000  1.0000
  C   C8        1.0  0.27933  0.29541  0.50016  1.0000
  C   C9        1.0  0.05653  0.49827  0.49995  1.0000
  C   C10       1.0  0.11183  0.39728  0.49998  1.0000
  C   C11       1.0  0.05848  0.69809  0.50000  1.0000
  C   C12       1.0  0.11566  0.59757  0.49999  1.0000
  C   C13       1.0  0.27923  0.69985  0.50008  1.0000
  C   C14       1.0  0.22356  0.79908  0.50006  1.0000
  C   C15       1.0  0.05651  0.89893  0.50001  1.0000
  C   C16       1.0  0.11202  0.79863  0.50004  1.0000
  C   C17       1.0  0.27793  0.89897  0.50003  1.0000
  C   C18       1.0  0.55591  0.99922  0.49988  1.0000
  C   C19       1.0  0.38896  0.09767  0.50005  1.0000
  C   C20       1.0  0.44431  0.99834  0.49994  1.0000
  C   C21       1.0  0.61117  0.09828  0.49995  1.0000
  C   C22       1.0  0.55600  0.19639  0.50016  1.0000
  C   C23       1.0  0.44372  0.19738  0.50019  1.0000
  C   C24       1.0  0.55784  0.60690  0.50022  1.0000
  C   C25       1.0  0.39280  0.69882  0.50011  1.0000
  C   C26       1.0  0.61326  0.70481  0.50005  1.0000
  C   C27       1.0  0.55715  0.80237  0.49996  1.0000
  C   C28       1.0  0.38954  0.89896  0.49998  1.0000
  C   C29       1.0  0.44585  0.79975  0.50001  1.0000
  C   C30       1.0  0.61222  0.90118  0.49987  1.0000
  C   C31       1.0  0.88965  0.99990  0.49994  1.0000
  C   C32       1.0  0.72238  0.09951  0.49994  1.0000
  C   C33       1.0  0.77830  0.00029  0.49989  1.0000
  C   C34       1.0  0.94305  0.10018  0.49995  1.0000
  C   C35       1.0  0.88660  0.20051  0.49998  1.0000
  C   C36       1.0  0.71421  0.29966  0.50017  1.0000
  C   C37       1.0  0.77418  0.20078  0.50002  1.0000
  C   C38       1.0  0.94185  0.29985  0.49998  1.0000
  C   C39       1.0  0.88488  0.39963  0.50003  1.0000
  C   C40       1.0  0.71882  0.50401  0.50019  1.0000
  C   C41       1.0  0.77123  0.40036  0.50016  1.0000
  C   C42       1.0  0.94441  0.49890  0.49997  1.0000
  C   C43       1.0  0.88993  0.59993  0.49998  1.0000
  C   C44       1.0  0.72442  0.70241  0.50000  1.0000
  C   C45       1.0  0.77848  0.60188  0.50004  1.0000
  C   C46       1.0  0.94627  0.69913  0.49997  1.0000
  C   C47       1.0  0.89112  0.79973  0.49996  1.0000
  C   C48       1.0  0.72371  0.90080  0.49988  1.0000
  C   C49       1.0  0.77965  0.80119  0.49993  1.0000
  C   C50       1.0  0.94528  0.89978  0.49997  1.0000
  C   C51       1.0  0.22202  0.39341  0.50006  1.0000
  C   C52       1.0  0.22777  0.59984  0.50004  1.0000
  C   C53       1.0  0.39255  0.29876  0.50029  1.0000
  C   C54       1.0  0.44693  0.59888  0.50022  1.0000
  N   N1        1.0  0.60437  0.29480  0.50031  1.0000
  N   N2        1.0  0.61275  0.51109  0.50035  1.0000
  Ni  Ni1       1.0  0.32892  0.48771  0.50009  1.0000
  Fe  Fe1       1.0  0.50083  0.41335  0.50045  1.0000
