data_image0
_chemical_formula_structural       C54N2FeSc
_chemical_formula_sum              "C54 N2 Fe1 Sc1"
_cell_length_a       12.7166
_cell_length_b       12.5153
_cell_length_c       19.9619
_cell_angle_alpha    90.0015
_cell_angle_beta     90.0086
_cell_angle_gamma    89.5837

_space_group_name_H-M_alt    "P 1"
_space_group_IT_number       1

loop_
  _space_group_symop_operation_xyz
  'x, y, z'

loop_
  _atom_site_type_symbol
  _atom_site_label
  _atom_site_symmetry_multiplicity
  _atom_site_fract_x
  _atom_site_fract_y
  _atom_site_fract_z
  _atom_site_occupancy
  C   C1        1.0  0.22167  0.99852  0.49647  1.0000
  C   C2        1.0  0.05380  0.09784  0.49613  1.0000
  C   C3        1.0  0.11025  0.99833  0.49548  1.0000
  C   C4        1.0  0.27637  0.09781  0.49865  1.0000
  C   C5        1.0  0.21922  0.19521  0.49926  1.0000
  C   C6        1.0  0.05334  0.29748  0.49844  1.0000
  C   C7        1.0  0.10816  0.19686  0.49756  1.0000
  C   C8        1.0  0.27389  0.29372  0.50374  1.0000
  C   C9        1.0  0.05939  0.49714  0.49644  1.0000
  C   C10       1.0  0.11193  0.39515  0.49898  1.0000
  C   C11       1.0  0.05948  0.69737  0.49464  1.0000
  C   C12       1.0  0.11851  0.59676  0.49440  1.0000
  C   C13       1.0  0.28012  0.70180  0.49508  1.0000
  C   C14       1.0  0.22385  0.80016  0.49543  1.0000
  C   C15       1.0  0.05604  0.89831  0.49477  1.0000
  C   C16       1.0  0.11230  0.79842  0.49467  1.0000
  C   C17       1.0  0.27801  0.90005  0.49638  1.0000
  C   C18       1.0  0.55559  0.00027  0.49836  1.0000
  C   C19       1.0  0.38778  0.10106  0.50087  1.0000
  C   C20       1.0  0.44393  0.00103  0.49885  1.0000
  C   C21       1.0  0.60971  0.09963  0.50123  1.0000
  C   C22       1.0  0.55473  0.19917  0.50856  1.0000
  C   C23       1.0  0.44075  0.20272  0.50574  1.0000
  C   C24       1.0  0.55663  0.60370  0.49915  1.0000
  C   C25       1.0  0.39284  0.70156  0.49645  1.0000
  C   C26       1.0  0.61253  0.70307  0.49694  1.0000
  C   C27       1.0  0.55716  0.80201  0.49639  1.0000
  C   C28       1.0  0.38947  0.90131  0.49709  1.0000
  C   C29       1.0  0.44585  0.80169  0.49663  1.0000
  C   C30       1.0  0.61188  0.90115  0.49662  1.0000
  C   C31       1.0  0.88850  0.99921  0.49603  1.0000
  C   C32       1.0  0.72133  0.10010  0.49996  1.0000
  C   C33       1.0  0.77737  0.00009  0.49721  1.0000
  C   C34       1.0  0.94240  0.09913  0.49640  1.0000
  C   C35       1.0  0.88688  0.19951  0.49826  1.0000
  C   C36       1.0  0.71790  0.29991  0.50872  1.0000
  C   C37       1.0  0.77536  0.20032  0.50107  1.0000
  C   C38       1.0  0.94186  0.29952  0.49914  1.0000
  C   C39       1.0  0.88669  0.40050  0.50087  1.0000
  C   C40       1.0  0.71966  0.50349  0.50340  1.0000
  C   C41       1.0  0.77419  0.40156  0.50583  1.0000
  C   C42       1.0  0.94650  0.49842  0.49776  1.0000
  C   C43       1.0  0.89098  0.59885  0.49667  1.0000
  C   C44       1.0  0.72402  0.70133  0.49673  1.0000
  C   C45       1.0  0.77900  0.60057  0.49791  1.0000
  C   C46       1.0  0.94716  0.69826  0.49530  1.0000
  C   C47       1.0  0.89106  0.79874  0.49531  1.0000
  C   C48       1.0  0.72322  0.90030  0.49641  1.0000
  C   C49       1.0  0.77921  0.80015  0.49584  1.0000
  C   C50       1.0  0.94478  0.89888  0.49506  1.0000
  C   C51       1.0  0.23062  0.60036  0.49315  1.0000
  C   C52       1.0  0.38469  0.30348  0.50818  1.0000
  C   C53       1.0  0.60807  0.29636  0.51885  1.0000
  C   C54       1.0  0.44495  0.59977  0.49776  1.0000
  N   N1        1.0  0.21867  0.38927  0.50253  1.0000
  N   N2        1.0  0.61189  0.50866  0.50643  1.0000
  Fe  Fe1       1.0  0.33366  0.48263  0.49271  1.0000
  Sc  Sc1       1.0  0.51051  0.41698  0.56962  1.0000
