data_image0
_chemical_formula_structural       C54N2FeV
_chemical_formula_sum              "C54 N2 Fe1 V1"
_cell_length_a       12.6884
_cell_length_b       12.5668
_cell_length_c       19.9242
_cell_angle_alpha    89.9905
_cell_angle_beta     90.0502
_cell_angle_gamma    89.5962

_space_group_name_H-M_alt    "P 1"
_space_group_IT_number       1

loop_
  _space_group_symop_operation_xyz
  'x, y, z'

loop_
  _atom_site_type_symbol
  _atom_site_label
  _atom_site_symmetry_multiplicity
  _atom_site_fract_x
  _atom_site_fract_y
  _atom_site_fract_z
  _atom_site_occupancy
  C   C1        1.0  0.22247  0.99903  0.49904  1.0000
  C   C2        1.0  0.05485  0.09903  0.50002  1.0000
  C   C3        1.0  0.11065  0.99913  0.49933  1.0000
  C   C4        1.0  0.27761  0.09830  0.49914  1.0000
  C   C5        1.0  0.22184  0.19696  0.49987  1.0000
  C   C6        1.0  0.05362  0.29869  0.50123  1.0000
  C   C7        1.0  0.10989  0.19872  0.50043  1.0000
  C   C8        1.0  0.27811  0.29635  0.50149  1.0000
  C   C9        1.0  0.05646  0.49825  0.49862  1.0000
  C   C10       1.0  0.11083  0.39735  0.50066  1.0000
  C   C11       1.0  0.05891  0.69747  0.49813  1.0000
  C   C12       1.0  0.11715  0.59687  0.49718  1.0000
  C   C13       1.0  0.27940  0.70064  0.49739  1.0000
  C   C14       1.0  0.22350  0.79974  0.49852  1.0000
  C   C15       1.0  0.05641  0.89890  0.49898  1.0000
  C   C16       1.0  0.11200  0.79852  0.49847  1.0000
  C   C17       1.0  0.27801  0.89986  0.49880  1.0000
  C   C18       1.0  0.55616  0.99974  0.49941  1.0000
  C   C19       1.0  0.38944  0.10000  0.49950  1.0000
  C   C20       1.0  0.44447  0.00030  0.49918  1.0000
  C   C21       1.0  0.61127  0.09845  0.50159  1.0000
  C   C22       1.0  0.55689  0.19740  0.50483  1.0000
  C   C23       1.0  0.44447  0.20052  0.50128  1.0000
  C   C24       1.0  0.55599  0.60560  0.49453  1.0000
  C   C25       1.0  0.39219  0.70201  0.49739  1.0000
  C   C26       1.0  0.61230  0.70370  0.49608  1.0000
  C   C27       1.0  0.55698  0.80230  0.49729  1.0000
  C   C28       1.0  0.38946  0.90102  0.49858  1.0000
  C   C29       1.0  0.44556  0.80170  0.49787  1.0000
  C   C30       1.0  0.61221  0.90100  0.49838  1.0000
  C   C31       1.0  0.88953  0.99950  0.49995  1.0000
  C   C32       1.0  0.72245  0.09908  0.50192  1.0000
  C   C33       1.0  0.77823  0.99965  0.50026  1.0000
  C   C34       1.0  0.94308  0.09975  0.50036  1.0000
  C   C35       1.0  0.88668  0.20006  0.50119  1.0000
  C   C36       1.0  0.71523  0.29880  0.50579  1.0000
  C   C37       1.0  0.77481  0.19992  0.50262  1.0000
  C   C38       1.0  0.94129  0.29978  0.50146  1.0000
  C   C39       1.0  0.88468  0.39965  0.50130  1.0000
  C   C40       1.0  0.71700  0.50251  0.49846  1.0000
  C   C41       1.0  0.77071  0.40028  0.50268  1.0000
  C   C42       1.0  0.94406  0.49862  0.49928  1.0000
  C   C43       1.0  0.88905  0.59912  0.49826  1.0000
  C   C44       1.0  0.72363  0.70149  0.49669  1.0000
  C   C45       1.0  0.77707  0.60047  0.49724  1.0000
  C   C46       1.0  0.94621  0.69821  0.49834  1.0000
  C   C47       1.0  0.89104  0.79894  0.49851  1.0000
  C   C48       1.0  0.72365  0.90015  0.49878  1.0000
  C   C49       1.0  0.77932  0.80014  0.49789  1.0000
  C   C50       1.0  0.94520  0.89920  0.49914  1.0000
  C   C51       1.0  0.22086  0.39318  0.50123  1.0000
  C   C52       1.0  0.23011  0.59876  0.49549  1.0000
  C   C53       1.0  0.39204  0.30167  0.50277  1.0000
  C   C54       1.0  0.44481  0.60125  0.49523  1.0000
  N   N1        1.0  0.60690  0.29396  0.51139  1.0000
  N   N2        1.0  0.60909  0.50832  0.49619  1.0000
  Fe  Fe1       1.0  0.33909  0.47962  0.48616  1.0000
  V   V1        1.0  0.50138  0.41597  0.54068  1.0000
