data_image0
_chemical_formula_structural       C50N6CuFe
_chemical_formula_sum              "C50 N6 Cu1 Fe1"
_cell_length_a       12.6934
_cell_length_b       12.527
_cell_length_c       19.9791
_cell_angle_alpha    90.0102
_cell_angle_beta     89.9875
_cell_angle_gamma    90.0012

_space_group_name_H-M_alt    "P 1"
_space_group_IT_number       1

loop_
  _space_group_symop_operation_xyz
  'x, y, z'

loop_
  _atom_site_type_symbol
  _atom_site_label
  _atom_site_symmetry_multiplicity
  _atom_site_fract_x
  _atom_site_fract_y
  _atom_site_fract_z
  _atom_site_occupancy
  C   C1        1.0  0.22070  0.99955  0.50001  1.0000
  C   C2        1.0  0.05508  0.10037  0.50002  1.0000
  C   C3        1.0  0.10927  0.99970  0.50000  1.0000
  C   C4        1.0  0.27611  0.09890  0.50003  1.0000
  C   C5        1.0  0.22277  0.19923  0.49999  1.0000
  C   C6        1.0  0.05579  0.30115  0.50002  1.0000
  C   C7        1.0  0.11057  0.20071  0.50002  1.0000
  C   C8        1.0  0.28282  0.29732  0.49984  1.0000
  C   C9        1.0  0.22801  0.39927  0.49991  1.0000
  C   C10       1.0  0.05624  0.49996  0.50003  1.0000
  C   C11       1.0  0.11423  0.40019  0.50001  1.0000
  C   C12       1.0  0.28573  0.50072  0.49990  1.0000
  C   C13       1.0  0.22712  0.60153  0.50004  1.0000
  C   C14       1.0  0.05567  0.69899  0.50001  1.0000
  C   C15       1.0  0.11373  0.60008  0.50003  1.0000
  C   C16       1.0  0.28326  0.70192  0.50001  1.0000
  C   C17       1.0  0.22353  0.79993  0.49996  1.0000
  C   C18       1.0  0.05511  0.89902  0.49999  1.0000
  C   C19       1.0  0.11100  0.79885  0.49998  1.0000
  C   C20       1.0  0.27627  0.90065  0.49999  1.0000
  C   C21       1.0  0.55470  0.99965  0.50007  1.0000
  C   C22       1.0  0.38772  0.09727  0.50005  1.0000
  C   C23       1.0  0.44375  0.99967  0.50007  1.0000
  C   C24       1.0  0.61074  0.09725  0.50006  1.0000
  C   C25       1.0  0.55619  0.19513  0.49990  1.0000
  C   C26       1.0  0.44226  0.19515  0.49989  1.0000
  C   C27       1.0  0.55543  0.80457  0.50004  1.0000
  C   C28       1.0  0.38790  0.90180  0.50003  1.0000
  C   C29       1.0  0.44299  0.80459  0.50004  1.0000
  C   C30       1.0  0.61053  0.90176  0.50002  1.0000
  C   C31       1.0  0.88915  0.99970  0.50000  1.0000
  C   C32       1.0  0.72235  0.09886  0.50003  1.0000
  C   C33       1.0  0.77773  0.99951  0.50001  1.0000
  C   C34       1.0  0.94340  0.10036  0.50002  1.0000
  C   C35       1.0  0.88792  0.20068  0.50002  1.0000
  C   C36       1.0  0.71566  0.29725  0.49987  1.0000
  C   C37       1.0  0.77572  0.19918  0.50000  1.0000
  C   C38       1.0  0.94268  0.30112  0.50002  1.0000
  C   C39       1.0  0.88423  0.40015  0.50001  1.0000
  C   C40       1.0  0.71267  0.50066  0.49991  1.0000
  C   C41       1.0  0.77044  0.39921  0.49992  1.0000
  C   C42       1.0  0.94216  0.49994  0.50003  1.0000
  C   C43       1.0  0.88465  0.60002  0.50004  1.0000
  C   C44       1.0  0.71513  0.70185  0.50000  1.0000
  C   C45       1.0  0.77127  0.60146  0.50005  1.0000
  C   C46       1.0  0.94269  0.69896  0.50001  1.0000
  C   C47       1.0  0.88735  0.79881  0.49998  1.0000
  C   C48       1.0  0.72215  0.90060  0.49999  1.0000
  C   C49       1.0  0.77485  0.79988  0.49996  1.0000
  C   C50       1.0  0.94326  0.89900  0.49999  1.0000
  N   N1        1.0  0.39057  0.29030  0.49965  1.0000
  N   N2        1.0  0.60791  0.29025  0.49969  1.0000
  N   N3        1.0  0.38989  0.50405  0.49958  1.0000
  N   N4        1.0  0.60851  0.50401  0.49959  1.0000
  N   N5        1.0  0.39276  0.70717  0.50011  1.0000
  N   N6        1.0  0.60564  0.70714  0.50010  1.0000
  Cu  Cu1       1.0  0.49923  0.39957  0.49931  1.0000
  Fe  Fe1       1.0  0.49918  0.59798  0.49962  1.0000
