data_image0
_chemical_formula_structural       C49N7Fe2
_chemical_formula_sum              "C49 N7 Fe2"
_cell_length_a       13.0027
_cell_length_b       12.2503
_cell_length_c       19.9443
_cell_angle_alpha    89.9898
_cell_angle_beta     89.9756
_cell_angle_gamma    90.0014

_space_group_name_H-M_alt    "P 1"
_space_group_IT_number       1

loop_
  _space_group_symop_operation_xyz
  'x, y, z'

loop_
  _atom_site_type_symbol
  _atom_site_label
  _atom_site_symmetry_multiplicity
  _atom_site_fract_x
  _atom_site_fract_y
  _atom_site_fract_z
  _atom_site_occupancy
  C   C1        1.0  0.22826  0.99991  0.49980  1.0000
  C   C2        1.0  0.05846  0.09959  0.50000  1.0000
  C   C3        1.0  0.11599  0.99991  0.49995  1.0000
  C   C4        1.0  0.28277  0.10451  0.49954  1.0000
  C   C5        1.0  0.22312  0.20530  0.49951  1.0000
  C   C6        1.0  0.05109  0.29857  0.50006  1.0000
  C   C7        1.0  0.11161  0.20095  0.49988  1.0000
  C   C8        1.0  0.20958  0.39960  0.49966  1.0000
  C   C9        1.0  0.04786  0.49990  0.50030  1.0000
  C   C10       1.0  0.10231  0.39970  0.50012  1.0000
  C   C11       1.0  0.26337  0.49991  0.49940  1.0000
  C   C12       1.0  0.20957  0.60022  0.49991  1.0000
  C   C13       1.0  0.05109  0.70125  0.50012  1.0000
  C   C14       1.0  0.10230  0.60012  0.50022  1.0000
  C   C15       1.0  0.22312  0.79453  0.49988  1.0000
  C   C16       1.0  0.05844  0.90023  0.50001  1.0000
  C   C17       1.0  0.11161  0.79888  0.50002  1.0000
  C   C18       1.0  0.28277  0.89532  0.49984  1.0000
  C   C19       1.0  0.55831  0.99992  0.50005  1.0000
  C   C20       1.0  0.39498  0.10420  0.49949  1.0000
  C   C21       1.0  0.44799  0.99992  0.49987  1.0000
  C   C22       1.0  0.61445  0.09980  0.50000  1.0000
  C   C23       1.0  0.55886  0.19939  0.49957  1.0000
  C   C24       1.0  0.61355  0.30181  0.49953  1.0000
  C   C25       1.0  0.60805  0.49990  0.49947  1.0000
  C   C26       1.0  0.61354  0.69800  0.49980  1.0000
  C   C27       1.0  0.55886  0.80044  0.49996  1.0000
  C   C28       1.0  0.39498  0.89563  0.49986  1.0000
  C   C29       1.0  0.61445  0.90003  0.50014  1.0000
  C   C30       1.0  0.89128  0.99991  0.50009  1.0000
  C   C31       1.0  0.72457  0.09934  0.50015  1.0000
  C   C32       1.0  0.78074  0.99991  0.50015  1.0000
  C   C33       1.0  0.94704  0.09968  0.50010  1.0000
  C   C34       1.0  0.88890  0.19856  0.50014  1.0000
  C   C35       1.0  0.72238  0.29920  0.49993  1.0000
  C   C36       1.0  0.77881  0.19896  0.50012  1.0000
  C   C37       1.0  0.94183  0.29902  0.50015  1.0000
  C   C38       1.0  0.88540  0.39945  0.50017  1.0000
  C   C39       1.0  0.71948  0.49991  0.49989  1.0000
  C   C40       1.0  0.77606  0.40005  0.50001  1.0000
  C   C41       1.0  0.93951  0.49991  0.50024  1.0000
  C   C42       1.0  0.88541  0.60037  0.50012  1.0000
  C   C43       1.0  0.72237  0.70062  0.49996  1.0000
  C   C44       1.0  0.77605  0.59977  0.50000  1.0000
  C   C45       1.0  0.94183  0.70080  0.50007  1.0000
  C   C46       1.0  0.88889  0.80125  0.50002  1.0000
  C   C47       1.0  0.72458  0.90049  0.50013  1.0000
  C   C48       1.0  0.77881  0.80086  0.50005  1.0000
  C   C49       1.0  0.94702  0.90014  0.50003  1.0000
  N   N1        1.0  0.26986  0.30693  0.49918  1.0000
  N   N2        1.0  0.26986  0.69290  0.49969  1.0000
  N   N3        1.0  0.45225  0.20070  0.49915  1.0000
  N   N4        1.0  0.55695  0.39947  0.49912  1.0000
  N   N5        1.0  0.36650  0.49990  0.49855  1.0000
  N   N6        1.0  0.55694  0.60033  0.49941  1.0000
  N   N7        1.0  0.45225  0.79914  0.49979  1.0000
  Fe  Fe1       1.0  0.41175  0.35389  0.49849  1.0000
  Fe  Fe2       1.0  0.41176  0.64593  0.49913  1.0000
