data_image0
_chemical_formula_structural       C52N4CoFe
_chemical_formula_sum              "C52 N4 Co1 Fe1"
_cell_length_a       12.6535
_cell_length_b       12.538
_cell_length_c       20.0247
_cell_angle_alpha    89.9954
_cell_angle_beta     90.0381
_cell_angle_gamma    89.8324

_space_group_name_H-M_alt    "P 1"
_space_group_IT_number       1

loop_
  _space_group_symop_operation_xyz
  'x, y, z'

loop_
  _atom_site_type_symbol
  _atom_site_label
  _atom_site_symmetry_multiplicity
  _atom_site_fract_x
  _atom_site_fract_y
  _atom_site_fract_z
  _atom_site_occupancy
  C   C1        1.0  0.22198  0.99880  0.49997  1.0000
  C   C2        1.0  0.05466  0.09902  0.49997  1.0000
  C   C3        1.0  0.11032  0.99938  0.49997  1.0000
  C   C4        1.0  0.27753  0.09718  0.50000  1.0000
  C   C5        1.0  0.22148  0.19537  0.50005  1.0000
  C   C6        1.0  0.05627  0.29910  0.50002  1.0000
  C   C7        1.0  0.10986  0.19801  0.50000  1.0000
  C   C8        1.0  0.27779  0.29285  0.50020  1.0000
  C   C9        1.0  0.06259  0.49862  0.50005  1.0000
  C   C10       1.0  0.11763  0.39631  0.50010  1.0000
  C   C11       1.0  0.05838  0.69923  0.50000  1.0000
  C   C12       1.0  0.11850  0.60097  0.50003  1.0000
  C   C13       1.0  0.27675  0.70356  0.50003  1.0000
  C   C14       1.0  0.22220  0.80172  0.50000  1.0000
  C   C15       1.0  0.05568  0.89973  0.49999  1.0000
  C   C16       1.0  0.11095  0.80020  0.50000  1.0000
  C   C17       1.0  0.27763  0.90046  0.49997  1.0000
  C   C18       1.0  0.55617  0.99857  0.49993  1.0000
  C   C19       1.0  0.38921  0.09735  0.50001  1.0000
  C   C20       1.0  0.44465  0.99851  0.49994  1.0000
  C   C21       1.0  0.61160  0.09731  0.49998  1.0000
  C   C22       1.0  0.55726  0.19555  0.50011  1.0000
  C   C23       1.0  0.44375  0.19658  0.50014  1.0000
  C   C24       1.0  0.55537  0.60606  0.50012  1.0000
  C   C25       1.0  0.38989  0.70209  0.50006  1.0000
  C   C26       1.0  0.61178  0.70361  0.50001  1.0000
  C   C27       1.0  0.55615  0.80191  0.49996  1.0000
  C   C28       1.0  0.38918  0.90020  0.49994  1.0000
  C   C29       1.0  0.44448  0.80120  0.49998  1.0000
  C   C30       1.0  0.61168  0.90016  0.49993  1.0000
  C   C31       1.0  0.88920  0.99957  0.49997  1.0000
  C   C32       1.0  0.72294  0.09896  0.49998  1.0000
  C   C33       1.0  0.77806  0.99935  0.49996  1.0000
  C   C34       1.0  0.94305  0.09998  0.49997  1.0000
  C   C35       1.0  0.88798  0.20057  0.49998  1.0000
  C   C36       1.0  0.71552  0.29827  0.50011  1.0000
  C   C37       1.0  0.77569  0.19988  0.50001  1.0000
  C   C38       1.0  0.94338  0.30065  0.50000  1.0000
  C   C39       1.0  0.88640  0.40043  0.50003  1.0000
  C   C40       1.0  0.71704  0.50319  0.50011  1.0000
  C   C41       1.0  0.77159  0.40057  0.50010  1.0000
  C   C42       1.0  0.94784  0.49879  0.50002  1.0000
  C   C43       1.0  0.89090  0.59871  0.50000  1.0000
  C   C44       1.0  0.72365  0.70096  0.49999  1.0000
  C   C45       1.0  0.77812  0.60038  0.50003  1.0000
  C   C46       1.0  0.94608  0.69866  0.49999  1.0000
  C   C47       1.0  0.89070  0.79907  0.49998  1.0000
  C   C48       1.0  0.72340  0.89967  0.49994  1.0000
  C   C49       1.0  0.77900  0.80005  0.49996  1.0000
  C   C50       1.0  0.94453  0.89952  0.49998  1.0000
  C   C51       1.0  0.38973  0.29572  0.50031  1.0000
  C   C52       1.0  0.44215  0.60147  0.50015  1.0000
  N   N1        1.0  0.22579  0.38985  0.50025  1.0000
  N   N2        1.0  0.22708  0.60663  0.50004  1.0000
  N   N3        1.0  0.60706  0.29233  0.50023  1.0000
  N   N4        1.0  0.60945  0.51036  0.50018  1.0000
  Co  Co1       1.0  0.33794  0.49220  0.50019  1.0000
  Fe  Fe1       1.0  0.49071  0.41026  0.50058  1.0000
