data_image0
_chemical_formula_structural       C50N6NiFe
_chemical_formula_sum              "C50 N6 Ni1 Fe1"
_cell_length_a       12.6609
_cell_length_b       12.5356
_cell_length_c       20.0166
_cell_angle_alpha    89.9964
_cell_angle_beta     90.0358
_cell_angle_gamma    89.871

_space_group_name_H-M_alt    "P 1"
_space_group_IT_number       1

loop_
  _space_group_symop_operation_xyz
  'x, y, z'

loop_
  _atom_site_type_symbol
  _atom_site_label
  _atom_site_symmetry_multiplicity
  _atom_site_fract_x
  _atom_site_fract_y
  _atom_site_fract_z
  _atom_site_occupancy
  C   C1        1.0  0.22160  0.99883  0.49994  1.0000
  C   C2        1.0  0.05520  0.09981  0.49996  1.0000
  C   C3        1.0  0.11008  0.99970  0.49996  1.0000
  C   C4        1.0  0.27730  0.09654  0.50002  1.0000
  C   C5        1.0  0.22302  0.19561  0.50008  1.0000
  C   C6        1.0  0.05816  0.30045  0.49997  1.0000
  C   C7        1.0  0.11113  0.19897  0.49997  1.0000
  C   C8        1.0  0.28153  0.29224  0.50024  1.0000
  C   C9        1.0  0.06431  0.49805  0.50004  1.0000
  C   C10       1.0  0.12104  0.39699  0.50000  1.0000
  C   C11       1.0  0.05810  0.69912  0.49995  1.0000
  C   C12       1.0  0.11875  0.60093  0.50007  1.0000
  C   C13       1.0  0.27761  0.70343  0.50016  1.0000
  C   C14       1.0  0.22269  0.80167  0.50003  1.0000
  C   C15       1.0  0.05561  0.89967  0.49998  1.0000
  C   C16       1.0  0.11099  0.80008  0.49999  1.0000
  C   C17       1.0  0.27755  0.90030  0.49996  1.0000
  C   C18       1.0  0.55608  0.99845  0.49992  1.0000
  C   C19       1.0  0.38896  0.09611  0.50004  1.0000
  C   C20       1.0  0.44490  0.99805  0.49992  1.0000
  C   C21       1.0  0.61091  0.09720  0.49993  1.0000
  C   C22       1.0  0.55559  0.19499  0.50000  1.0000
  C   C23       1.0  0.44310  0.19422  0.50027  1.0000
  C   C24       1.0  0.55205  0.60687  0.50013  1.0000
  C   C25       1.0  0.39032  0.70351  0.50011  1.0000
  C   C26       1.0  0.61064  0.70346  0.49993  1.0000
  C   C27       1.0  0.55623  0.80222  0.49990  1.0000
  C   C28       1.0  0.38874  0.90013  0.49994  1.0000
  C   C29       1.0  0.44452  0.80187  0.49998  1.0000
  C   C30       1.0  0.61199  0.90005  0.49992  1.0000
  C   C31       1.0  0.88933  0.99995  0.50001  1.0000
  C   C32       1.0  0.72267  0.09917  0.49996  1.0000
  C   C33       1.0  0.77797  0.99964  0.49999  1.0000
  C   C34       1.0  0.94323  0.10061  0.49999  1.0000
  C   C35       1.0  0.88822  0.20133  0.50001  1.0000
  C   C36       1.0  0.71475  0.29853  0.49998  1.0000
  C   C37       1.0  0.77548  0.20041  0.50001  1.0000
  C   C38       1.0  0.94414  0.30164  0.49998  1.0000
  C   C39       1.0  0.88620  0.40083  0.50000  1.0000
  C   C40       1.0  0.71429  0.50275  0.50014  1.0000
  C   C41       1.0  0.76980  0.40118  0.50005  1.0000
  C   C42       1.0  0.94797  0.49836  0.49998  1.0000
  C   C43       1.0  0.89016  0.59778  0.49992  1.0000
  C   C44       1.0  0.72269  0.70026  0.49996  1.0000
  C   C45       1.0  0.77639  0.59910  0.49995  1.0000
  C   C46       1.0  0.94558  0.69820  0.49994  1.0000
  C   C47       1.0  0.89038  0.79876  0.49999  1.0000
  C   C48       1.0  0.72347  0.89944  0.49998  1.0000
  C   C49       1.0  0.77841  0.79942  0.49998  1.0000
  C   C50       1.0  0.94426  0.89942  0.50000  1.0000
  N   N1        1.0  0.23238  0.38977  0.49997  1.0000
  N   N2        1.0  0.22683  0.60673  0.50031  1.0000
  N   N3        1.0  0.39039  0.29104  0.50060  1.0000
  N   N4        1.0  0.60594  0.29241  0.49987  1.0000
  N   N5        1.0  0.60326  0.51019  0.50061  1.0000
  N   N6        1.0  0.44286  0.60643  0.50006  1.0000
  Ni  Ni1       1.0  0.33689  0.49851  0.49966  1.0000
  Fe  Fe1       1.0  0.49363  0.40427  0.50126  1.0000
