data_image0
_chemical_formula_structural       C48N6Fe2
_chemical_formula_sum              "C48 N6 Fe2"
_cell_length_a       12.7368
_cell_length_b       12.3041
_cell_length_c       20.2723
_cell_angle_alpha    89.9942
_cell_angle_beta     90.0022
_cell_angle_gamma    90.3754

_space_group_name_H-M_alt    "P 1"
_space_group_IT_number       1

loop_
  _space_group_symop_operation_xyz
  'x, y, z'

loop_
  _atom_site_type_symbol
  _atom_site_label
  _atom_site_symmetry_multiplicity
  _atom_site_fract_x
  _atom_site_fract_y
  _atom_site_fract_z
  _atom_site_occupancy
  C   C1        1.0  0.22199  0.00146  0.50000  1.0000
  C   C2        1.0  0.05601  0.10157  0.50007  1.0000
  C   C3        1.0  0.11013  0.00081  0.50005  1.0000
  C   C4        1.0  0.27798  0.10221  0.49996  1.0000
  C   C5        1.0  0.22520  0.20417  0.49997  1.0000
  C   C6        1.0  0.05678  0.30210  0.49998  1.0000
  C   C7        1.0  0.11255  0.20261  0.50003  1.0000
  C   C8        1.0  0.28506  0.30417  0.49984  1.0000
  C   C9        1.0  0.22786  0.40667  0.49994  1.0000
  C   C10       1.0  0.05581  0.50052  0.49993  1.0000
  C   C11       1.0  0.11382  0.40195  0.49993  1.0000
  C   C12       1.0  0.22528  0.59735  0.49999  1.0000
  C   C13       1.0  0.05452  0.69922  0.49995  1.0000
  C   C14       1.0  0.11198  0.60027  0.49994  1.0000
  C   C15       1.0  0.28095  0.70045  0.49999  1.0000
  C   C16       1.0  0.22239  0.79950  0.49994  1.0000
  C   C17       1.0  0.05456  0.89981  0.50002  1.0000
  C   C18       1.0  0.11014  0.79945  0.49996  1.0000
  C   C19       1.0  0.27682  0.90087  0.49995  1.0000
  C   C20       1.0  0.55449  0.99950  0.49992  1.0000
  C   C21       1.0  0.38947  0.10202  0.49990  1.0000
  C   C22       1.0  0.44390  0.00095  0.49993  1.0000
  C   C23       1.0  0.61012  0.10000  0.49992  1.0000
  C   C24       1.0  0.55700  0.20149  0.49980  1.0000
  C   C25       1.0  0.44386  0.20338  0.49976  1.0000
  C   C26       1.0  0.55452  0.79704  0.50008  1.0000
  C   C27       1.0  0.38826  0.90046  0.49994  1.0000
  C   C28       1.0  0.44138  0.79895  0.50002  1.0000
  C   C29       1.0  0.60891  0.89843  0.49996  1.0000
  C   C30       1.0  0.88824  0.99972  0.50006  1.0000
  C   C31       1.0  0.72156  0.09963  0.49999  1.0000
  C   C32       1.0  0.77639  0.99905  0.50002  1.0000
  C   C33       1.0  0.94382  0.10072  0.50008  1.0000
  C   C34       1.0  0.88823  0.20108  0.50004  1.0000
  C   C35       1.0  0.71741  0.30006  0.49985  1.0000
  C   C36       1.0  0.77598  0.20102  0.49999  1.0000
  C   C37       1.0  0.94388  0.30131  0.49998  1.0000
  C   C38       1.0  0.88642  0.40026  0.49991  1.0000
  C   C39       1.0  0.77311  0.40317  0.49983  1.0000
  C   C40       1.0  0.94260  0.50001  0.49991  1.0000
  C   C41       1.0  0.88459  0.59858  0.49992  1.0000
  C   C42       1.0  0.71330  0.69632  0.50002  1.0000
  C   C43       1.0  0.77054  0.59384  0.49989  1.0000
  C   C44       1.0  0.94161  0.69843  0.49995  1.0000
  C   C45       1.0  0.88583  0.79791  0.49996  1.0000
  C   C46       1.0  0.72040  0.89828  0.49998  1.0000
  C   C47       1.0  0.77317  0.79633  0.49996  1.0000
  C   C48       1.0  0.94236  0.89896  0.50002  1.0000
  N   N1        1.0  0.28074  0.50323  0.50005  1.0000
  N   N2        1.0  0.39344  0.30267  0.49957  1.0000
  N   N3        1.0  0.61013  0.29886  0.49969  1.0000
  N   N4        1.0  0.38825  0.70162  0.50013  1.0000
  N   N5        1.0  0.60491  0.69776  0.50028  1.0000
  N   N6        1.0  0.71767  0.49728  0.49977  1.0000
  Fe  Fe1       1.0  0.50692  0.41963  0.49849  1.0000
  Fe  Fe2       1.0  0.49124  0.58047  0.50148  1.0000
