data_image0
_chemical_formula_structural       C52N4FeMn
_chemical_formula_sum              "C52 N4 Fe1 Mn1"
_cell_length_a       12.7268
_cell_length_b       12.5005
_cell_length_c       19.9689
_cell_angle_alpha    89.9958
_cell_angle_beta     89.9898
_cell_angle_gamma    89.9997

_space_group_name_H-M_alt    "P 1"
_space_group_IT_number       1

loop_
  _space_group_symop_operation_xyz
  'x, y, z'

loop_
  _atom_site_type_symbol
  _atom_site_label
  _atom_site_symmetry_multiplicity
  _atom_site_fract_x
  _atom_site_fract_y
  _atom_site_fract_z
  _atom_site_occupancy
  C   C1        1.0  0.22065  0.99977  0.50003  1.0000
  C   C2        1.0  0.05503  0.10062  0.49999  1.0000
  C   C3        1.0  0.10953  0.99976  0.50004  1.0000
  C   C4        1.0  0.27623  0.09934  0.50005  1.0000
  C   C5        1.0  0.22319  0.20023  0.50009  1.0000
  C   C6        1.0  0.05522  0.30065  0.49997  1.0000
  C   C7        1.0  0.11107  0.20063  0.50001  1.0000
  C   C8        1.0  0.28228  0.29946  0.50006  1.0000
  C   C9        1.0  0.22455  0.39947  0.49984  1.0000
  C   C10       1.0  0.05579  0.50091  0.49993  1.0000
  C   C11       1.0  0.11244  0.40061  0.49991  1.0000
  C   C12       1.0  0.28164  0.49993  0.49996  1.0000
  C   C13       1.0  0.22640  0.60121  0.50010  1.0000
  C   C14       1.0  0.05547  0.69950  0.49997  1.0000
  C   C15       1.0  0.11326  0.60056  0.49999  1.0000
  C   C16       1.0  0.28335  0.70147  0.50001  1.0000
  C   C17       1.0  0.22359  0.79980  0.50000  1.0000
  C   C18       1.0  0.05512  0.89909  0.50005  1.0000
  C   C19       1.0  0.11116  0.79917  0.50002  1.0000
  C   C20       1.0  0.27650  0.90039  0.50000  1.0000
  C   C21       1.0  0.55465  0.99895  0.49996  1.0000
  C   C22       1.0  0.38740  0.09726  0.50005  1.0000
  C   C23       1.0  0.44379  0.99894  0.49996  1.0000
  C   C24       1.0  0.61102  0.09728  0.50005  1.0000
  C   C25       1.0  0.55522  0.19447  0.50020  1.0000
  C   C26       1.0  0.44318  0.19447  0.50020  1.0000
  C   C27       1.0  0.55532  0.80272  0.49994  1.0000
  C   C28       1.0  0.38809  0.90063  0.49996  1.0000
  C   C29       1.0  0.44313  0.80272  0.49994  1.0000
  C   C30       1.0  0.61036  0.90064  0.49996  1.0000
  C   C31       1.0  0.88890  0.99977  0.50004  1.0000
  C   C32       1.0  0.72219  0.09936  0.50005  1.0000
  C   C33       1.0  0.77778  0.99980  0.50003  1.0000
  C   C34       1.0  0.94339  0.10063  0.49999  1.0000
  C   C35       1.0  0.88734  0.20064  0.50001  1.0000
  C   C36       1.0  0.71612  0.29948  0.50008  1.0000
  C   C37       1.0  0.77521  0.20025  0.50009  1.0000
  C   C38       1.0  0.94318  0.30066  0.49998  1.0000
  C   C39       1.0  0.88597  0.40063  0.49992  1.0000
  C   C40       1.0  0.71678  0.49996  0.49999  1.0000
  C   C41       1.0  0.77386  0.39949  0.49986  1.0000
  C   C42       1.0  0.94263  0.50092  0.49993  1.0000
  C   C43       1.0  0.88517  0.60057  0.49998  1.0000
  C   C44       1.0  0.71510  0.70150  0.50000  1.0000
  C   C45       1.0  0.77204  0.60124  0.50010  1.0000
  C   C46       1.0  0.94298  0.69951  0.49997  1.0000
  C   C47       1.0  0.88729  0.79919  0.50002  1.0000
  C   C48       1.0  0.72194  0.90042  0.50001  1.0000
  C   C49       1.0  0.77486  0.79982  0.50000  1.0000
  C   C50       1.0  0.94332  0.89910  0.50006  1.0000
  C   C51       1.0  0.39404  0.29608  0.50015  1.0000
  C   C52       1.0  0.60436  0.29609  0.50017  1.0000
  N   N1        1.0  0.38665  0.49848  0.49983  1.0000
  N   N2        1.0  0.61177  0.49849  0.49989  1.0000
  N   N3        1.0  0.39253  0.70478  0.49997  1.0000
  N   N4        1.0  0.60592  0.70479  0.49994  1.0000
  Fe  Fe1       1.0  0.49921  0.41047  0.49664  1.0000
  Mn  Mn1       1.0  0.49921  0.58978  0.50055  1.0000
