data_image0
_chemical_formula_structural       C49N6FeMn
_chemical_formula_sum              "C49 N6 Fe1 Mn1"
_cell_length_a       12.8795
_cell_length_b       12.2905
_cell_length_c       20.0723
_cell_angle_alpha    89.9676
_cell_angle_beta     89.9124
_cell_angle_gamma    89.0346

_space_group_name_H-M_alt    "P 1"
_space_group_IT_number       1

loop_
  _space_group_symop_operation_xyz
  'x, y, z'

loop_
  _atom_site_type_symbol
  _atom_site_label
  _atom_site_symmetry_multiplicity
  _atom_site_fract_x
  _atom_site_fract_y
  _atom_site_fract_z
  _atom_site_occupancy
  C   C1        1.0  0.22118  0.99895  0.50012  1.0000
  C   C2        1.0  0.05235  0.10080  0.50012  1.0000
  C   C3        1.0  0.10988  0.00043  0.50011  1.0000
  C   C4        1.0  0.27505  0.09899  0.49999  1.0000
  C   C5        1.0  0.21779  0.19910  0.49992  1.0000
  C   C6        1.0  0.05149  0.30079  0.50006  1.0000
  C   C7        1.0  0.10688  0.20025  0.50009  1.0000
  C   C8        1.0  0.27238  0.29762  0.49954  1.0000
  C   C9        1.0  0.21745  0.39915  0.49958  1.0000
  C   C10       1.0  0.05497  0.50147  0.49995  1.0000
  C   C11       1.0  0.10812  0.39967  0.49989  1.0000
  C   C12       1.0  0.22582  0.59482  0.49966  1.0000
  C   C13       1.0  0.05816  0.70085  0.49992  1.0000
  C   C14       1.0  0.11430  0.59963  0.49986  1.0000
  C   C15       1.0  0.28470  0.69633  0.49980  1.0000
  C   C16       1.0  0.22488  0.79722  0.49999  1.0000
  C   C17       1.0  0.05595  0.90084  0.50000  1.0000
  C   C18       1.0  0.11334  0.79984  0.49998  1.0000
  C   C19       1.0  0.27854  0.89807  0.50007  1.0000
  C   C20       1.0  0.55364  0.00214  0.49990  1.0000
  C   C21       1.0  0.38573  0.10121  0.49984  1.0000
  C   C22       1.0  0.44302  0.00024  0.49996  1.0000
  C   C23       1.0  0.60664  0.10445  0.49981  1.0000
  C   C24       1.0  0.54955  0.20578  0.49961  1.0000
  C   C25       1.0  0.43752  0.20492  0.49951  1.0000
  C   C26       1.0  0.60479  0.30757  0.49979  1.0000
  C   C27       1.0  0.55824  0.79731  0.50018  1.0000
  C   C28       1.0  0.38964  0.89785  0.50003  1.0000
  C   C29       1.0  0.44373  0.79352  0.50000  1.0000
  C   C30       1.0  0.60994  0.90087  0.49999  1.0000
  C   C31       1.0  0.88675  0.00297  0.49995  1.0000
  C   C32       1.0  0.71823  0.10567  0.49994  1.0000
  C   C33       1.0  0.77524  0.00454  0.49991  1.0000
  C   C34       1.0  0.94115  0.10267  0.50008  1.0000
  C   C35       1.0  0.88455  0.20376  0.50015  1.0000
  C   C36       1.0  0.71746  0.30893  0.50021  1.0000
  C   C37       1.0  0.77306  0.20661  0.50011  1.0000
  C   C38       1.0  0.94053  0.30285  0.50016  1.0000
  C   C39       1.0  0.88644  0.40468  0.50024  1.0000
  C   C40       1.0  0.77503  0.40931  0.50047  1.0000
  C   C41       1.0  0.94490  0.50299  0.50014  1.0000
  C   C42       1.0  0.89077  0.60454  0.50014  1.0000
  C   C43       1.0  0.72392  0.70578  0.50036  1.0000
  C   C44       1.0  0.78130  0.60480  0.50051  1.0000
  C   C45       1.0  0.94705  0.70306  0.49992  1.0000
  C   C46       1.0  0.89040  0.80323  0.49987  1.0000
  C   C47       1.0  0.72139  0.90385  0.49992  1.0000
  C   C48       1.0  0.77930  0.80435  0.49998  1.0000
  C   C49       1.0  0.94458  0.90276  0.49989  1.0000
  N   N1        1.0  0.27544  0.49380  0.49936  1.0000
  N   N2        1.0  0.37980  0.30053  0.49919  1.0000
  N   N3        1.0  0.55062  0.40148  0.49962  1.0000
  N   N4        1.0  0.39185  0.69631  0.49981  1.0000
  N   N5        1.0  0.61661  0.70276  0.50055  1.0000
  N   N6        1.0  0.72576  0.50990  0.50091  1.0000
  Fe  Fe1       1.0  0.41720  0.45118  0.49902  1.0000
  Mn  Mn1       1.0  0.57549  0.54586  0.50099  1.0000
