data_image0
_chemical_formula_structural       C50N6FeV
_chemical_formula_sum              "C50 N6 Fe1 V1"
_cell_length_a       12.6884
_cell_length_b       12.5668
_cell_length_c       19.9242
_cell_angle_alpha    89.9905
_cell_angle_beta     90.0502
_cell_angle_gamma    89.5962

_space_group_name_H-M_alt    "P 1"
_space_group_IT_number       1

loop_
  _space_group_symop_operation_xyz
  'x, y, z'

loop_
  _atom_site_type_symbol
  _atom_site_label
  _atom_site_symmetry_multiplicity
  _atom_site_fract_x
  _atom_site_fract_y
  _atom_site_fract_z
  _atom_site_occupancy
  C   C1        1.0  0.22117  0.99777  0.50038  1.0000
  C   C2        1.0  0.05413  0.09897  0.49984  1.0000
  C   C3        1.0  0.10974  0.99900  0.50021  1.0000
  C   C4        1.0  0.27655  0.09494  0.50067  1.0000
  C   C5        1.0  0.22090  0.19307  0.50054  1.0000
  C   C6        1.0  0.05716  0.29964  0.49956  1.0000
  C   C7        1.0  0.10950  0.19747  0.49973  1.0000
  C   C8        1.0  0.27875  0.28849  0.50100  1.0000
  C   C9        1.0  0.06475  0.49760  0.49971  1.0000
  C   C10       1.0  0.11987  0.39554  0.49898  1.0000
  C   C11       1.0  0.05883  0.69896  0.50033  1.0000
  C   C12       1.0  0.11960  0.60087  0.50039  1.0000
  C   C13       1.0  0.27841  0.70293  0.50053  1.0000
  C   C14       1.0  0.22327  0.80128  0.50075  1.0000
  C   C15       1.0  0.05575  0.89930  0.50031  1.0000
  C   C16       1.0  0.11159  0.79979  0.50067  1.0000
  C   C17       1.0  0.27768  0.89965  0.50037  1.0000
  C   C18       1.0  0.55594  0.99903  0.49909  1.0000
  C   C19       1.0  0.38837  0.09498  0.50036  1.0000
  C   C20       1.0  0.44478  0.99745  0.49952  1.0000
  C   C21       1.0  0.61029  0.09778  0.49934  1.0000
  C   C22       1.0  0.55483  0.19582  0.50044  1.0000
  C   C23       1.0  0.44189  0.19274  0.50156  1.0000
  C   C24       1.0  0.55540  0.60966  0.49870  1.0000
  C   C25       1.0  0.39154  0.70403  0.49899  1.0000
  C   C26       1.0  0.61261  0.70557  0.49863  1.0000
  C   C27       1.0  0.55700  0.80355  0.49854  1.0000
  C   C28       1.0  0.38888  0.90001  0.49980  1.0000
  C   C29       1.0  0.44515  0.80210  0.49920  1.0000
  C   C30       1.0  0.61233  0.90094  0.49882  1.0000
  C   C31       1.0  0.88897  0.00004  0.49963  1.0000
  C   C32       1.0  0.72202  0.09973  0.49936  1.0000
  C   C33       1.0  0.77771  0.00017  0.49929  1.0000
  C   C34       1.0  0.94234  0.10038  0.49973  1.0000
  C   C35       1.0  0.88734  0.20138  0.49986  1.0000
  C   C36       1.0  0.71358  0.29923  0.50055  1.0000
  C   C37       1.0  0.77456  0.20100  0.49988  1.0000
  C   C38       1.0  0.94336  0.30131  0.49993  1.0000
  C   C39       1.0  0.88621  0.40097  0.50017  1.0000
  C   C40       1.0  0.71634  0.50444  0.50092  1.0000
  C   C41       1.0  0.76988  0.40175  0.50075  1.0000
  C   C42       1.0  0.94846  0.49835  0.49999  1.0000
  C   C43       1.0  0.89146  0.59835  0.49998  1.0000
  C   C44       1.0  0.72434  0.70166  0.49950  1.0000
  C   C45       1.0  0.77807  0.60020  0.49999  1.0000
  C   C46       1.0  0.94646  0.69850  0.49999  1.0000
  C   C47       1.0  0.89114  0.79920  0.49984  1.0000
  C   C48       1.0  0.72374  0.90026  0.49911  1.0000
  C   C49       1.0  0.77935  0.80040  0.49948  1.0000
  C   C50       1.0  0.94450  0.89951  0.49989  1.0000
  N   N1        1.0  0.23118  0.38685  0.49786  1.0000
  N   N2        1.0  0.22764  0.60678  0.50096  1.0000
  N   N3        1.0  0.38648  0.28717  0.50408  1.0000
  N   N4        1.0  0.60449  0.29335  0.50111  1.0000
  N   N5        1.0  0.60619  0.51304  0.50216  1.0000
  N   N6        1.0  0.44630  0.60811  0.49685  1.0000
  Fe  Fe1       1.0  0.34525  0.49102  0.49428  1.0000
  V   V1        1.0  0.48232  0.41357  0.51047  1.0000
