data_image0
_chemical_formula_structural       C48N6CoFe
_chemical_formula_sum              "C48 N6 Co1 Fe1"
_cell_length_a       12.7423
_cell_length_b       12.3031
_cell_length_c       20.2653
_cell_angle_alpha    90.0223
_cell_angle_beta     89.6028
_cell_angle_gamma    90.1417

_space_group_name_H-M_alt    "P 1"
_space_group_IT_number       1

loop_
  _space_group_symop_operation_xyz
  'x, y, z'

loop_
  _atom_site_type_symbol
  _atom_site_label
  _atom_site_symmetry_multiplicity
  _atom_site_fract_x
  _atom_site_fract_y
  _atom_site_fract_z
  _atom_site_occupancy
  C   C1        1.0  0.22197  0.00094  0.50019  1.0000
  C   C2        1.0  0.05573  0.10175  0.49988  1.0000
  C   C3        1.0  0.11020  0.00079  0.50000  1.0000
  C   C4        1.0  0.27762  0.10176  0.49930  1.0000
  C   C5        1.0  0.22471  0.20367  0.49890  1.0000
  C   C6        1.0  0.05614  0.30222  0.49953  1.0000
  C   C7        1.0  0.11196  0.20256  0.49958  1.0000
  C   C8        1.0  0.28430  0.30341  0.49767  1.0000
  C   C9        1.0  0.22733  0.40621  0.49914  1.0000
  C   C10       1.0  0.05595  0.50077  0.49986  1.0000
  C   C11       1.0  0.11334  0.40190  0.49949  1.0000
  C   C12       1.0  0.22584  0.59699  0.50115  1.0000
  C   C13       1.0  0.05508  0.69952  0.50029  1.0000
  C   C14       1.0  0.11240  0.60029  0.50040  1.0000
  C   C15       1.0  0.28216  0.69964  0.50267  1.0000
  C   C16       1.0  0.22326  0.79880  0.50142  1.0000
  C   C17       1.0  0.05506  0.89989  0.50003  1.0000
  C   C18       1.0  0.11085  0.79938  0.50041  1.0000
  C   C19       1.0  0.27717  0.90044  0.50129  1.0000
  C   C20       1.0  0.55457  0.00009  0.50085  1.0000
  C   C21       1.0  0.38901  0.10146  0.49898  1.0000
  C   C22       1.0  0.44389  0.00065  0.50075  1.0000
  C   C23       1.0  0.61000  0.10063  0.49928  1.0000
  C   C24       1.0  0.55649  0.20182  0.49702  1.0000
  C   C25       1.0  0.44309  0.20260  0.49686  1.0000
  C   C26       1.0  0.55535  0.79770  0.50384  1.0000
  C   C27       1.0  0.38868  0.90006  0.50212  1.0000
  C   C28       1.0  0.44208  0.79848  0.50398  1.0000
  C   C29       1.0  0.60929  0.89929  0.50215  1.0000
  C   C30       1.0  0.88830  0.00036  0.50019  1.0000
  C   C31       1.0  0.72137  0.10073  0.49974  1.0000
  C   C32       1.0  0.77653  0.00002  0.50050  1.0000
  C   C33       1.0  0.94338  0.10142  0.50003  1.0000
  C   C34       1.0  0.88751  0.20195  0.49982  1.0000
  C   C35       1.0  0.71585  0.30174  0.49778  1.0000
  C   C36       1.0  0.77492  0.20244  0.49932  1.0000
  C   C37       1.0  0.94329  0.30192  0.49958  1.0000
  C   C38       1.0  0.88587  0.40121  0.49929  1.0000
  C   C39       1.0  0.77219  0.40479  0.49860  1.0000
  C   C40       1.0  0.94248  0.50056  0.49966  1.0000
  C   C41       1.0  0.88525  0.59960  0.49999  1.0000
  C   C42       1.0  0.71443  0.69801  0.50205  1.0000
  C   C43       1.0  0.77150  0.59553  0.50025  1.0000
  C   C44       1.0  0.94239  0.69919  0.50015  1.0000
  C   C45       1.0  0.88662  0.79878  0.50028  1.0000
  C   C46       1.0  0.72080  0.89942  0.50135  1.0000
  C   C47       1.0  0.77401  0.79756  0.50118  1.0000
  C   C48       1.0  0.94283  0.89954  0.50006  1.0000
  N   N1        1.0  0.28049  0.50204  0.50032  1.0000
  N   N2        1.0  0.39254  0.30165  0.49513  1.0000
  N   N3        1.0  0.60815  0.29996  0.49524  1.0000
  N   N4        1.0  0.38997  0.70071  0.50489  1.0000
  N   N5        1.0  0.60623  0.69917  0.50436  1.0000
  N   N6        1.0  0.71798  0.49968  0.49909  1.0000
  Co  Co1       1.0  0.50198  0.40747  0.47633  1.0000
  Fe  Fe1       1.0  0.49410  0.57446  0.51528  1.0000
