data_image0
_chemical_formula_structural       C52N4CuFe
_chemical_formula_sum              "C52 N4 Cu1 Fe1"
_cell_length_a       12.7435
_cell_length_b       12.5184
_cell_length_c       19.9141
_cell_angle_alpha    89.9947
_cell_angle_beta     90.0309
_cell_angle_gamma    89.8828

_space_group_name_H-M_alt    "P 1"
_space_group_IT_number       1

loop_
  _space_group_symop_operation_xyz
  'x, y, z'

loop_
  _atom_site_type_symbol
  _atom_site_label
  _atom_site_symmetry_multiplicity
  _atom_site_fract_x
  _atom_site_fract_y
  _atom_site_fract_z
  _atom_site_occupancy
  C   C1        1.0  0.22182  0.99884  0.50001  1.0000
  C   C2        1.0  0.05485  0.09932  0.49997  1.0000
  C   C3        1.0  0.11035  0.99955  0.50000  1.0000
  C   C4        1.0  0.27775  0.09707  0.50004  1.0000
  C   C5        1.0  0.22226  0.19561  0.50008  1.0000
  C   C6        1.0  0.05664  0.29918  0.49999  1.0000
  C   C7        1.0  0.11062  0.19823  0.50000  1.0000
  C   C8        1.0  0.27910  0.29326  0.50022  1.0000
  C   C9        1.0  0.06220  0.49875  0.49998  1.0000
  C   C10       1.0  0.11797  0.39662  0.50003  1.0000
  C   C11       1.0  0.05683  0.70023  0.49999  1.0000
  C   C12       1.0  0.11631  0.60192  0.49999  1.0000
  C   C13       1.0  0.27564  0.70373  0.50004  1.0000
  C   C14       1.0  0.22173  0.80217  0.50004  1.0000
  C   C15       1.0  0.05524  0.90007  0.50000  1.0000
  C   C16       1.0  0.11047  0.80063  0.50002  1.0000
  C   C17       1.0  0.27757  0.90051  0.50002  1.0000
  C   C18       1.0  0.55599  0.99816  0.49988  1.0000
  C   C19       1.0  0.38912  0.09664  0.50004  1.0000
  C   C20       1.0  0.44466  0.99787  0.49994  1.0000
  C   C21       1.0  0.61170  0.09717  0.49993  1.0000
  C   C22       1.0  0.55692  0.19493  0.50012  1.0000
  C   C23       1.0  0.44406  0.19580  0.50020  1.0000
  C   C24       1.0  0.55586  0.60470  0.50018  1.0000
  C   C25       1.0  0.38940  0.70062  0.50007  1.0000
  C   C26       1.0  0.61202  0.70291  0.50003  1.0000
  C   C27       1.0  0.55592  0.80102  0.49995  1.0000
  C   C28       1.0  0.38896  0.89947  0.49997  1.0000
  C   C29       1.0  0.44435  0.80025  0.49999  1.0000
  C   C30       1.0  0.61163  0.89988  0.49988  1.0000
  C   C31       1.0  0.88904  0.99987  0.49994  1.0000
  C   C32       1.0  0.72285  0.09901  0.49992  1.0000
  C   C33       1.0  0.77804  0.99950  0.49990  1.0000
  C   C34       1.0  0.94324  0.10020  0.49995  1.0000
  C   C35       1.0  0.88799  0.20072  0.49997  1.0000
  C   C36       1.0  0.71582  0.29865  0.50014  1.0000
  C   C37       1.0  0.77562  0.20011  0.50000  1.0000
  C   C38       1.0  0.94386  0.30057  0.49998  1.0000
  C   C39       1.0  0.88690  0.40029  0.50002  1.0000
  C   C40       1.0  0.71835  0.50277  0.50017  1.0000
  C   C41       1.0  0.77223  0.40047  0.50013  1.0000
  C   C42       1.0  0.94762  0.49869  0.49998  1.0000
  C   C43       1.0  0.89065  0.59869  0.49997  1.0000
  C   C44       1.0  0.72362  0.70092  0.50000  1.0000
  C   C45       1.0  0.77827  0.60016  0.50003  1.0000
  C   C46       1.0  0.94519  0.69923  0.49997  1.0000
  C   C47       1.0  0.89000  0.79954  0.49995  1.0000
  C   C48       1.0  0.72303  0.89975  0.49990  1.0000
  C   C49       1.0  0.77857  0.80012  0.49994  1.0000
  C   C50       1.0  0.94425  0.89975  0.49997  1.0000
  C   C51       1.0  0.39108  0.29525  0.50037  1.0000
  C   C52       1.0  0.44416  0.60095  0.50017  1.0000
  N   N1        1.0  0.22580  0.38974  0.50016  1.0000
  N   N2        1.0  0.22331  0.60878  0.50001  1.0000
  N   N3        1.0  0.60677  0.29259  0.50024  1.0000
  N   N4        1.0  0.61074  0.50845  0.50035  1.0000
  Cu  Cu1       1.0  0.33337  0.49736  0.50017  1.0000
  Fe  Fe1       1.0  0.49799  0.40840  0.50054  1.0000
