data_image0
_chemical_formula_structural       C52N4FeMn
_chemical_formula_sum              "C52 N4 Fe1 Mn1"
_cell_length_a       13.0707
_cell_length_b       12.3195
_cell_length_c       19.7292
_cell_angle_alpha    89.9909
_cell_angle_beta     89.9774
_cell_angle_gamma    90.08

_space_group_name_H-M_alt    "P 1"
_space_group_IT_number       1

loop_
  _space_group_symop_operation_xyz
  'x, y, z'

loop_
  _atom_site_type_symbol
  _atom_site_label
  _atom_site_symmetry_multiplicity
  _atom_site_fract_x
  _atom_site_fract_y
  _atom_site_fract_z
  _atom_site_occupancy
  C   C1        1.0  0.22672  0.00220  0.49978  1.0000
  C   C2        1.0  0.05693  0.09963  0.49997  1.0000
  C   C3        1.0  0.11420  0.00089  0.49990  1.0000
  C   C4        1.0  0.28230  0.10570  0.49957  1.0000
  C   C5        1.0  0.22146  0.20505  0.49955  1.0000
  C   C6        1.0  0.05053  0.29828  0.50008  1.0000
  C   C7        1.0  0.11032  0.20074  0.49988  1.0000
  C   C8        1.0  0.20823  0.39764  0.49964  1.0000
  C   C9        1.0  0.04781  0.49992  0.50028  1.0000
  C   C10       1.0  0.10147  0.39913  0.50010  1.0000
  C   C11       1.0  0.26266  0.49725  0.49928  1.0000
  C   C12       1.0  0.21010  0.59951  0.49981  1.0000
  C   C13       1.0  0.05189  0.70148  0.50019  1.0000
  C   C14       1.0  0.10219  0.59987  0.50020  1.0000
  C   C15       1.0  0.22165  0.79848  0.49988  1.0000
  C   C16       1.0  0.05720  0.90108  0.50001  1.0000
  C   C17       1.0  0.11065  0.80029  0.50005  1.0000
  C   C18       1.0  0.28005  0.89994  0.49982  1.0000
  C   C19       1.0  0.55789  0.99907  0.49997  1.0000
  C   C20       1.0  0.39481  0.10494  0.49954  1.0000
  C   C21       1.0  0.44726  0.00108  0.49982  1.0000
  C   C22       1.0  0.61439  0.09846  0.49995  1.0000
  C   C23       1.0  0.55971  0.19697  0.49961  1.0000
  C   C24       1.0  0.61399  0.30000  0.49957  1.0000
  C   C25       1.0  0.61119  0.50072  0.49950  1.0000
  C   C26       1.0  0.61644  0.69788  0.49979  1.0000
  C   C27       1.0  0.55907  0.80042  0.49990  1.0000
  C   C28       1.0  0.39215  0.89878  0.49983  1.0000
  C   C29       1.0  0.61455  0.90005  0.50005  1.0000
  C   C30       1.0  0.89085  0.99995  0.50011  1.0000
  C   C31       1.0  0.72453  0.09891  0.50010  1.0000
  C   C32       1.0  0.78034  0.99982  0.50015  1.0000
  C   C33       1.0  0.94608  0.09953  0.50010  1.0000
  C   C34       1.0  0.88851  0.19835  0.50014  1.0000
  C   C35       1.0  0.72331  0.29856  0.49991  1.0000
  C   C36       1.0  0.77895  0.19857  0.50009  1.0000
  C   C37       1.0  0.94135  0.29871  0.50018  1.0000
  C   C38       1.0  0.88607  0.39899  0.50019  1.0000
  C   C39       1.0  0.72188  0.49963  0.49985  1.0000
  C   C40       1.0  0.77687  0.39921  0.49999  1.0000
  C   C41       1.0  0.94004  0.49956  0.50026  1.0000
  C   C42       1.0  0.88701  0.60045  0.50017  1.0000
  C   C43       1.0  0.72508  0.70037  0.49995  1.0000
  C   C44       1.0  0.77796  0.59964  0.49999  1.0000
  C   C45       1.0  0.94236  0.70097  0.50017  1.0000
  C   C46       1.0  0.88929  0.80140  0.50010  1.0000
  C   C47       1.0  0.72464  0.90058  0.50011  1.0000
  C   C48       1.0  0.77969  0.80111  0.50007  1.0000
  C   C49       1.0  0.94645  0.90072  0.50008  1.0000
  C   C50       1.0  0.26979  0.69522  0.49962  1.0000
  C   C51       1.0  0.55609  0.39839  0.49924  1.0000
  C   C52       1.0  0.45040  0.80027  0.49978  1.0000
  N   N1        1.0  0.26743  0.30556  0.49925  1.0000
  N   N2        1.0  0.45365  0.19991  0.49930  1.0000
  N   N3        1.0  0.36476  0.49410  0.49832  1.0000
  N   N4        1.0  0.56330  0.60207  0.49949  1.0000
  Fe  Fe1       1.0  0.41308  0.35333  0.49876  1.0000
  Mn  Mn1       1.0  0.41286  0.64555  0.49898  1.0000
