data_image0
_chemical_formula_structural       C54N2CuFe
_chemical_formula_sum              "C54 N2 Cu1 Fe1"
_cell_length_a       13.0612
_cell_length_b       12.3392
_cell_length_c       19.712
_cell_angle_alpha    89.9955
_cell_angle_beta     89.9884
_cell_angle_gamma    89.9813

_space_group_name_H-M_alt    "P 1"
_space_group_IT_number       1

loop_
  _space_group_symop_operation_xyz
  'x, y, z'

loop_
  _atom_site_type_symbol
  _atom_site_label
  _atom_site_symmetry_multiplicity
  _atom_site_fract_x
  _atom_site_fract_y
  _atom_site_fract_z
  _atom_site_occupancy
  C   C1        1.0  0.22497  0.99985  0.49980  1.0000
  C   C2        1.0  0.05644  0.09940  0.49996  1.0000
  C   C3        1.0  0.11275  0.99992  0.49992  1.0000
  C   C4        1.0  0.27973  0.10107  0.49964  1.0000
  C   C5        1.0  0.22245  0.20165  0.49961  1.0000
  C   C6        1.0  0.05205  0.29825  0.50003  1.0000
  C   C7        1.0  0.11088  0.20004  0.49987  1.0000
  C   C8        1.0  0.21122  0.39857  0.49963  1.0000
  C   C9        1.0  0.04893  0.49976  0.50019  1.0000
  C   C10       1.0  0.10302  0.39900  0.50002  1.0000
  C   C11       1.0  0.26407  0.50005  0.49931  1.0000
  C   C12       1.0  0.21014  0.60122  0.49972  1.0000
  C   C13       1.0  0.05153  0.70133  0.50015  1.0000
  C   C14       1.0  0.10258  0.60046  0.50011  1.0000
  C   C15       1.0  0.22135  0.79785  0.49981  1.0000
  C   C16       1.0  0.05607  0.90062  0.50003  1.0000
  C   C17       1.0  0.11044  0.79994  0.50002  1.0000
  C   C18       1.0  0.27977  0.89821  0.49979  1.0000
  C   C19       1.0  0.55708  0.00070  0.49991  1.0000
  C   C20       1.0  0.39163  0.10335  0.49962  1.0000
  C   C21       1.0  0.44641  0.00064  0.49979  1.0000
  C   C22       1.0  0.61343  0.10003  0.49988  1.0000
  C   C23       1.0  0.55822  0.20053  0.49964  1.0000
  C   C24       1.0  0.61545  0.30235  0.49962  1.0000
  C   C25       1.0  0.61180  0.49760  0.49957  1.0000
  C   C26       1.0  0.61562  0.69826  0.49980  1.0000
  C   C27       1.0  0.55958  0.80132  0.49986  1.0000
  C   C28       1.0  0.39195  0.89797  0.49978  1.0000
  C   C29       1.0  0.61407  0.90117  0.50000  1.0000
  C   C30       1.0  0.89020  0.00012  0.50010  1.0000
  C   C31       1.0  0.72349  0.09940  0.50001  1.0000
  C   C32       1.0  0.77952  0.00022  0.50010  1.0000
  C   C33       1.0  0.94571  0.09946  0.50007  1.0000
  C   C34       1.0  0.88849  0.19869  0.50009  1.0000
  C   C35       1.0  0.72472  0.29963  0.49988  1.0000
  C   C36       1.0  0.77892  0.19904  0.50002  1.0000
  C   C37       1.0  0.94227  0.29877  0.50012  1.0000
  C   C38       1.0  0.88770  0.39902  0.50014  1.0000
  C   C39       1.0  0.72265  0.49902  0.49985  1.0000
  C   C40       1.0  0.77844  0.39960  0.49997  1.0000
  C   C41       1.0  0.94106  0.49980  0.50021  1.0000
  C   C42       1.0  0.88706  0.60040  0.50016  1.0000
  C   C43       1.0  0.72462  0.70028  0.49997  1.0000
  C   C44       1.0  0.77777  0.59970  0.50000  1.0000
  C   C45       1.0  0.94202  0.70082  0.50017  1.0000
  C   C46       1.0  0.88855  0.80120  0.50013  1.0000
  C   C47       1.0  0.72394  0.90094  0.50008  1.0000
  C   C48       1.0  0.77924  0.80084  0.50008  1.0000
  C   C49       1.0  0.94554  0.90063  0.50010  1.0000
  C   C50       1.0  0.27077  0.30428  0.49937  1.0000
  C   C51       1.0  0.27125  0.69488  0.49948  1.0000
  C   C52       1.0  0.44993  0.20119  0.49948  1.0000
  C   C53       1.0  0.55906  0.59964  0.49951  1.0000
  C   C54       1.0  0.45064  0.79972  0.49973  1.0000
  N   N1        1.0  0.56168  0.39666  0.49940  1.0000
  N   N2        1.0  0.36458  0.50076  0.49859  1.0000
  Cu  Cu1       1.0  0.41177  0.35217  0.49900  1.0000
  Fe  Fe1       1.0  0.41520  0.64695  0.49904  1.0000
