data_image0
_chemical_formula_structural       C53N5FeCr
_chemical_formula_sum              "C53 N5 Fe1 Cr1"
_cell_length_a       12.8568
_cell_length_b       12.3992
_cell_length_c       19.9304
_cell_angle_alpha    90.6037
_cell_angle_beta     89.9577
_cell_angle_gamma    90.5412

_space_group_name_H-M_alt    "P 1"
_space_group_IT_number       1

loop_
  _space_group_symop_operation_xyz
  'x, y, z'

loop_
  _atom_site_type_symbol
  _atom_site_label
  _atom_site_symmetry_multiplicity
  _atom_site_fract_x
  _atom_site_fract_y
  _atom_site_fract_z
  _atom_site_occupancy
  C   C1        1.0  0.22219  0.00105  0.49201  1.0000
  C   C2        1.0  0.05725  0.10095  0.48667  1.0000
  C   C3        1.0  0.11101  0.00064  0.48860  1.0000
  C   C4        1.0  0.27813  0.10209  0.49242  1.0000
  C   C5        1.0  0.22499  0.20411  0.49505  1.0000
  C   C6        1.0  0.05708  0.30100  0.49083  1.0000
  C   C7        1.0  0.11318  0.20205  0.49055  1.0000
  C   C8        1.0  0.28182  0.30494  0.50378  1.0000
  C   C9        1.0  0.22216  0.40574  0.50662  1.0000
  C   C10       1.0  0.05354  0.50124  0.49710  1.0000
  C   C11       1.0  0.11129  0.40215  0.49731  1.0000
  C   C12       1.0  0.21798  0.60202  0.51125  1.0000
  C   C13       1.0  0.05242  0.70055  0.49528  1.0000
  C   C14       1.0  0.10814  0.60162  0.50013  1.0000
  C   C15       1.0  0.27233  0.70378  0.51439  1.0000
  C   C16       1.0  0.21926  0.80119  0.50012  1.0000
  C   C17       1.0  0.05450  0.90044  0.48855  1.0000
  C   C18       1.0  0.10856  0.80069  0.49338  1.0000
  C   C19       1.0  0.27648  0.90146  0.49757  1.0000
  C   C20       1.0  0.55477  0.99826  0.48867  1.0000
  C   C21       1.0  0.38864  0.09952  0.49044  1.0000
  C   C22       1.0  0.44379  0.99964  0.49124  1.0000
  C   C23       1.0  0.61169  0.09706  0.48378  1.0000
  C   C24       1.0  0.55680  0.19582  0.48770  1.0000
  C   C25       1.0  0.39517  0.29837  0.50606  1.0000
  C   C26       1.0  0.44596  0.19842  0.49271  1.0000
  C   C27       1.0  0.61416  0.29357  0.49136  1.0000
  C   C28       1.0  0.56168  0.38819  0.51104  1.0000
  C   C29       1.0  0.37872  0.71385  0.53842  1.0000
  C   C30       1.0  0.55572  0.80230  0.51124  1.0000
  C   C31       1.0  0.38830  0.90064  0.50011  1.0000
  C   C32       1.0  0.44322  0.80418  0.51576  1.0000
  C   C33       1.0  0.61001  0.89979  0.49475  1.0000
  C   C34       1.0  0.88914  0.99920  0.48378  1.0000
  C   C35       1.0  0.72279  0.09775  0.48194  1.0000
  C   C36       1.0  0.77775  0.99836  0.48394  1.0000
  C   C37       1.0  0.94589  0.09966  0.48338  1.0000
  C   C38       1.0  0.89072  0.19910  0.48304  1.0000
  C   C39       1.0  0.72444  0.29619  0.48720  1.0000
  C   C40       1.0  0.77949  0.19761  0.48211  1.0000
  C   C41       1.0  0.94570  0.29997  0.48683  1.0000
  C   C42       1.0  0.88919  0.39915  0.49018  1.0000
  C   C43       1.0  0.72047  0.49290  0.50613  1.0000
  C   C44       1.0  0.77844  0.39713  0.49233  1.0000
  C   C45       1.0  0.94221  0.50042  0.49470  1.0000
  C   C46       1.0  0.88382  0.59931  0.49771  1.0000
  C   C47       1.0  0.71763  0.70202  0.50706  1.0000
  C   C48       1.0  0.77158  0.59818  0.50510  1.0000
  C   C49       1.0  0.94090  0.69927  0.49432  1.0000
  C   C50       1.0  0.88674  0.79917  0.49101  1.0000
  C   C51       1.0  0.72117  0.89920  0.49058  1.0000
  C   C52       1.0  0.77570  0.79934  0.49479  1.0000
  C   C53       1.0  0.94325  0.89938  0.48685  1.0000
  N   N1        1.0  0.26971  0.50503  0.51897  1.0000
  N   N2        1.0  0.45647  0.38682  0.52389  1.0000
  N   N3        1.0  0.61679  0.48182  0.52307  1.0000
  N   N4        1.0  0.41276  0.64540  0.58406  1.0000
  N   N5        1.0  0.61284  0.70950  0.52150  1.0000
  Fe  Fe1       1.0  0.38898  0.49807  0.57402  1.0000
  Cr  Cr1       1.0  0.54946  0.59393  0.57825  1.0000
