data_image0
_chemical_formula_structural       C52N4FeCr
_chemical_formula_sum              "C52 N4 Fe1 Cr1"
_cell_length_a       13.1147
_cell_length_b       12.3005
_cell_length_c       19.6931
_cell_angle_alpha    89.9997
_cell_angle_beta     89.9645
_cell_angle_gamma    89.9061

_space_group_name_H-M_alt    "P 1"
_space_group_IT_number       1

loop_
  _space_group_symop_operation_xyz
  'x, y, z'

loop_
  _atom_site_type_symbol
  _atom_site_label
  _atom_site_symmetry_multiplicity
  _atom_site_fract_x
  _atom_site_fract_y
  _atom_site_fract_z
  _atom_site_occupancy
  C   C1        1.0  0.22530  0.99979  0.49979  1.0000
  C   C2        1.0  0.05681  0.09923  0.49997  1.0000
  C   C3        1.0  0.11349  0.99982  0.49991  1.0000
  C   C4        1.0  0.28001  0.10320  0.49961  1.0000
  C   C5        1.0  0.22093  0.20430  0.49958  1.0000
  C   C6        1.0  0.05042  0.29795  0.50009  1.0000
  C   C7        1.0  0.11015  0.20024  0.49988  1.0000
  C   C8        1.0  0.20797  0.39795  0.49960  1.0000
  C   C9        1.0  0.04795  0.49943  0.50028  1.0000
  C   C10       1.0  0.10111  0.39866  0.50009  1.0000
  C   C11       1.0  0.26038  0.49837  0.49925  1.0000
  C   C12       1.0  0.20833  0.60036  0.49974  1.0000
  C   C13       1.0  0.05098  0.70136  0.50019  1.0000
  C   C14       1.0  0.10137  0.60000  0.50018  1.0000
  C   C15       1.0  0.22086  0.79512  0.49982  1.0000
  C   C16       1.0  0.05685  0.90050  0.50003  1.0000
  C   C17       1.0  0.11025  0.79931  0.50004  1.0000
  C   C18       1.0  0.28025  0.89663  0.49981  1.0000
  C   C19       1.0  0.55734  0.00001  0.49998  1.0000
  C   C20       1.0  0.39214  0.10414  0.49959  1.0000
  C   C21       1.0  0.44643  0.00084  0.49984  1.0000
  C   C22       1.0  0.61427  0.09917  0.49993  1.0000
  C   C23       1.0  0.56003  0.19895  0.49961  1.0000
  C   C24       1.0  0.61598  0.30115  0.49956  1.0000
  C   C25       1.0  0.61333  0.50200  0.49947  1.0000
  C   C26       1.0  0.61732  0.69866  0.49978  1.0000
  C   C27       1.0  0.55992  0.80122  0.49991  1.0000
  C   C28       1.0  0.39270  0.89774  0.49984  1.0000
  C   C29       1.0  0.61478  0.90082  0.50006  1.0000
  C   C30       1.0  0.89082  0.00004  0.50012  1.0000
  C   C31       1.0  0.72428  0.09923  0.50008  1.0000
  C   C32       1.0  0.78041  0.00018  0.50015  1.0000
  C   C33       1.0  0.94619  0.09938  0.50009  1.0000
  C   C34       1.0  0.88860  0.19831  0.50013  1.0000
  C   C35       1.0  0.72464  0.29948  0.49990  1.0000
  C   C36       1.0  0.77934  0.19880  0.50007  1.0000
  C   C37       1.0  0.94154  0.29863  0.50018  1.0000
  C   C38       1.0  0.88676  0.39924  0.50020  1.0000
  C   C39       1.0  0.72341  0.50038  0.49985  1.0000
  C   C40       1.0  0.77799  0.39988  0.49999  1.0000
  C   C41       1.0  0.94041  0.49967  0.50028  1.0000
  C   C42       1.0  0.88749  0.60055  0.50020  1.0000
  C   C43       1.0  0.72578  0.70081  0.49997  1.0000
  C   C44       1.0  0.77881  0.60018  0.50000  1.0000
  C   C45       1.0  0.94206  0.70107  0.50020  1.0000
  C   C46       1.0  0.88903  0.80161  0.50014  1.0000
  C   C47       1.0  0.72457  0.90122  0.50012  1.0000
  C   C48       1.0  0.77982  0.80156  0.50010  1.0000
  C   C49       1.0  0.94631  0.90054  0.50011  1.0000
  C   C50       1.0  0.45104  0.20212  0.49935  1.0000
  C   C51       1.0  0.55914  0.39992  0.49921  1.0000
  C   C52       1.0  0.45161  0.79990  0.49980  1.0000
  N   N1        1.0  0.26788  0.30536  0.49928  1.0000
  N   N2        1.0  0.26674  0.69356  0.49954  1.0000
  N   N3        1.0  0.36250  0.49550  0.49843  1.0000
  N   N4        1.0  0.56458  0.60273  0.49942  1.0000
  Fe  Fe1       1.0  0.41628  0.35556  0.49871  1.0000
  Cr  Cr1       1.0  0.41473  0.64256  0.49892  1.0000
