data_image0
_chemical_formula_structural       C50N6CoFe
_chemical_formula_sum              "C50 N6 Co1 Fe1"
_cell_length_a       12.6665
_cell_length_b       12.4665
_cell_length_c       20.1188
_cell_angle_alpha    90.0187
_cell_angle_beta     89.9878
_cell_angle_gamma    90.0069

_space_group_name_H-M_alt    "P 1"
_space_group_IT_number       1

loop_
  _space_group_symop_operation_xyz
  'x, y, z'

loop_
  _atom_site_type_symbol
  _atom_site_label
  _atom_site_symmetry_multiplicity
  _atom_site_fract_x
  _atom_site_fract_y
  _atom_site_fract_z
  _atom_site_occupancy
  C   C1        1.0  0.22098  0.99998  0.50001  1.0000
  C   C2        1.0  0.05526  0.10083  0.50002  1.0000
  C   C3        1.0  0.10939  0.99995  0.50000  1.0000
  C   C4        1.0  0.27663  0.09941  0.50001  1.0000
  C   C5        1.0  0.22423  0.20041  0.49998  1.0000
  C   C6        1.0  0.05590  0.30097  0.50002  1.0000
  C   C7        1.0  0.11151  0.20118  0.50001  1.0000
  C   C8        1.0  0.28435  0.29889  0.49988  1.0000
  C   C9        1.0  0.22766  0.39867  0.49991  1.0000
  C   C10       1.0  0.05620  0.49987  0.50002  1.0000
  C   C11       1.0  0.11409  0.39993  0.50000  1.0000
  C   C12       1.0  0.28526  0.49944  0.49984  1.0000
  C   C13       1.0  0.22788  0.60087  0.49999  1.0000
  C   C14       1.0  0.05582  0.69873  0.50002  1.0000
  C   C15       1.0  0.11417  0.59975  0.50002  1.0000
  C   C16       1.0  0.28404  0.70103  0.50000  1.0000
  C   C17       1.0  0.22399  0.79952  0.50001  1.0000
  C   C18       1.0  0.05519  0.89909  0.49999  1.0000
  C   C19       1.0  0.11131  0.79868  0.50000  1.0000
  C   C20       1.0  0.27653  0.90055  0.50001  1.0000
  C   C21       1.0  0.55476  0.00010  0.50005  1.0000
  C   C22       1.0  0.38813  0.09869  0.50002  1.0000
  C   C23       1.0  0.44365  0.00011  0.50005  1.0000
  C   C24       1.0  0.61031  0.09865  0.50002  1.0000
  C   C25       1.0  0.55541  0.19720  0.49990  1.0000
  C   C26       1.0  0.44309  0.19720  0.49989  1.0000
  C   C27       1.0  0.55537  0.80312  0.50000  1.0000
  C   C28       1.0  0.38806  0.90158  0.50003  1.0000
  C   C29       1.0  0.44296  0.80313  0.50001  1.0000
  C   C30       1.0  0.61031  0.90154  0.50003  1.0000
  C   C31       1.0  0.88901  0.99992  0.50000  1.0000
  C   C32       1.0  0.72181  0.09938  0.50002  1.0000
  C   C33       1.0  0.77742  0.99993  0.50001  1.0000
  C   C34       1.0  0.94320  0.10079  0.50002  1.0000
  C   C35       1.0  0.88701  0.20115  0.50002  1.0000
  C   C36       1.0  0.71420  0.29881  0.49989  1.0000
  C   C37       1.0  0.77429  0.20034  0.49999  1.0000
  C   C38       1.0  0.94265  0.30096  0.50002  1.0000
  C   C39       1.0  0.88444  0.39988  0.50001  1.0000
  C   C40       1.0  0.71320  0.49933  0.49984  1.0000
  C   C41       1.0  0.77087  0.39858  0.49992  1.0000
  C   C42       1.0  0.94226  0.49986  0.50002  1.0000
  C   C43       1.0  0.88421  0.59970  0.50003  1.0000
  C   C44       1.0  0.71428  0.70095  0.50000  1.0000
  C   C45       1.0  0.77049  0.60079  0.49999  1.0000
  C   C46       1.0  0.94249  0.69869  0.50002  1.0000
  C   C47       1.0  0.88702  0.79863  0.50000  1.0000
  C   C48       1.0  0.72184  0.90050  0.50001  1.0000
  C   C49       1.0  0.77433  0.79944  0.50001  1.0000
  C   C50       1.0  0.94317  0.89904  0.49999  1.0000
  N   N1        1.0  0.39414  0.29515  0.49977  1.0000
  N   N2        1.0  0.60441  0.29512  0.49977  1.0000
  N   N3        1.0  0.39005  0.49931  0.49960  1.0000
  N   N4        1.0  0.60841  0.49929  0.49959  1.0000
  N   N5        1.0  0.39379  0.70529  0.49997  1.0000
  N   N6        1.0  0.60452  0.70526  0.49997  1.0000
  Co  Co1       1.0  0.49920  0.40752  0.49958  1.0000
  Fe  Fe1       1.0  0.49925  0.58989  0.49970  1.0000
