data_image0
_chemical_formula_structural       C54N4FeMn
_chemical_formula_sum              "C54 N4 Fe1 Mn1"
_cell_length_a       12.9172
_cell_length_b       12.3172
_cell_length_c       20.0504
_cell_angle_alpha    91.1365
_cell_angle_beta     94.9857
_cell_angle_gamma    90.9431

_space_group_name_H-M_alt    "P 1"
_space_group_IT_number       1

loop_
  _space_group_symop_operation_xyz
  'x, y, z'

loop_
  _atom_site_type_symbol
  _atom_site_label
  _atom_site_symmetry_multiplicity
  _atom_site_fract_x
  _atom_site_fract_y
  _atom_site_fract_z
  _atom_site_occupancy
  C   C1        1.0  0.22260  0.00323  0.49970  1.0000
  C   C2        1.0  0.05759  0.10203  0.49893  1.0000
  C   C3        1.0  0.11156  0.00223  0.49935  1.0000
  C   C4        1.0  0.27975  0.10384  0.49973  1.0000
  C   C5        1.0  0.22675  0.20604  0.50010  1.0000
  C   C6        1.0  0.05909  0.30205  0.49826  1.0000
  C   C7        1.0  0.11507  0.20301  0.49927  1.0000
  C   C8        1.0  0.28416  0.30864  0.50093  1.0000
  C   C9        1.0  0.22614  0.40931  0.50101  1.0000
  C   C10       1.0  0.05530  0.50149  0.49820  1.0000
  C   C11       1.0  0.11416  0.40376  0.49890  1.0000
  C   C12       1.0  0.21730  0.60395  0.50052  1.0000
  C   C13       1.0  0.05295  0.70253  0.49828  1.0000
  C   C14       1.0  0.10838  0.60321  0.49882  1.0000
  C   C15       1.0  0.27296  0.70468  0.50072  1.0000
  C   C16       1.0  0.21887  0.80337  0.49962  1.0000
  C   C17       1.0  0.05405  0.90208  0.49884  1.0000
  C   C18       1.0  0.10843  0.80271  0.49888  1.0000
  C   C19       1.0  0.27659  0.90266  0.49983  1.0000
  C   C20       1.0  0.55496  0.99529  0.49841  1.0000
  C   C21       1.0  0.39031  0.10070  0.49896  1.0000
  C   C22       1.0  0.44435  0.99840  0.49889  1.0000
  C   C23       1.0  0.61194  0.09585  0.49725  1.0000
  C   C24       1.0  0.55793  0.19641  0.49700  1.0000
  C   C25       1.0  0.39633  0.30527  0.50014  1.0000
  C   C26       1.0  0.44751  0.20117  0.49837  1.0000
  C   C27       1.0  0.61545  0.29564  0.49565  1.0000
  C   C28       1.0  0.56173  0.39443  0.49705  1.0000
  C   C29       1.0  0.61734  0.49513  0.49674  1.0000
  C   C30       1.0  0.60892  0.68992  0.49918  1.0000
  C   C31       1.0  0.55100  0.79058  0.50015  1.0000
  C   C32       1.0  0.38719  0.89794  0.49973  1.0000
  C   C33       1.0  0.43883  0.79394  0.50103  1.0000
  C   C34       1.0  0.60807  0.89313  0.49889  1.0000
  C   C35       1.0  0.88835  0.99931  0.49801  1.0000
  C   C36       1.0  0.72289  0.09685  0.49685  1.0000
  C   C37       1.0  0.77691  0.99707  0.49767  1.0000
  C   C38       1.0  0.94608  0.09976  0.49797  1.0000
  C   C39       1.0  0.89117  0.19899  0.49680  1.0000
  C   C40       1.0  0.72570  0.29628  0.49494  1.0000
  C   C41       1.0  0.78021  0.19695  0.49595  1.0000
  C   C42       1.0  0.94770  0.29979  0.49683  1.0000
  C   C43       1.0  0.89131  0.39845  0.49584  1.0000
  C   C44       1.0  0.72584  0.49580  0.49528  1.0000
  C   C45       1.0  0.78111  0.39644  0.49481  1.0000
  C   C46       1.0  0.94526  0.49979  0.49674  1.0000
  C   C47       1.0  0.88887  0.59919  0.49669  1.0000
  C   C48       1.0  0.72033  0.69533  0.49729  1.0000
  C   C49       1.0  0.77896  0.59754  0.49629  1.0000
  C   C50       1.0  0.94280  0.70053  0.49753  1.0000
  C   C51       1.0  0.88656  0.79923  0.49776  1.0000
  C   C52       1.0  0.71953  0.89612  0.49813  1.0000
  C   C53       1.0  0.77534  0.79703  0.49766  1.0000
  C   C54       1.0  0.94315  0.90004  0.49832  1.0000
  N   N1        1.0  0.27547  0.51029  0.50312  1.0000
  N   N2        1.0  0.45578  0.40029  0.50140  1.0000
  N   N3        1.0  0.56013  0.58899  0.50063  1.0000
  N   N4        1.0  0.37996  0.69905  0.50337  1.0000
  Fe  Fe1       1.0  0.41927  0.54987  0.51106  1.0000
  Mn  Mn1       1.0  0.43974  0.55204  0.61973  1.0000
