data_image0
_chemical_formula_structural       C54N4FeCr
_chemical_formula_sum              "C54 N4 Fe1 Cr1"
_cell_length_a       12.8922
_cell_length_b       12.3584
_cell_length_c       19.9456
_cell_angle_alpha    91.3117
_cell_angle_beta     90.2413
_cell_angle_gamma    90.5392

_space_group_name_H-M_alt    "P 1"
_space_group_IT_number       1

loop_
  _space_group_symop_operation_xyz
  'x, y, z'

loop_
  _atom_site_type_symbol
  _atom_site_label
  _atom_site_symmetry_multiplicity
  _atom_site_fract_x
  _atom_site_fract_y
  _atom_site_fract_z
  _atom_site_occupancy
  C   C1        1.0  0.22100  0.00291  0.49577  1.0000
  C   C2        1.0  0.05555  0.10202  0.49247  1.0000
  C   C3        1.0  0.10999  0.00223  0.49308  1.0000
  C   C4        1.0  0.27752  0.10352  0.49779  1.0000
  C   C5        1.0  0.22375  0.20493  0.49957  1.0000
  C   C6        1.0  0.05587  0.30153  0.49385  1.0000
  C   C7        1.0  0.11212  0.20275  0.49522  1.0000
  C   C8        1.0  0.28036  0.30678  0.50644  1.0000
  C   C9        1.0  0.22030  0.40679  0.50734  1.0000
  C   C10       1.0  0.05402  0.50190  0.49580  1.0000
  C   C11       1.0  0.11033  0.40267  0.49767  1.0000
  C   C12       1.0  0.21776  0.60300  0.50842  1.0000
  C   C13       1.0  0.05313  0.70214  0.49310  1.0000
  C   C14       1.0  0.10849  0.60306  0.49766  1.0000
  C   C15       1.0  0.27345  0.70478  0.50874  1.0000
  C   C16       1.0  0.21882  0.80275  0.49850  1.0000
  C   C17       1.0  0.05377  0.90195  0.49152  1.0000
  C   C18       1.0  0.10847  0.80233  0.49342  1.0000
  C   C19       1.0  0.27531  0.90292  0.49835  1.0000
  C   C20       1.0  0.55427  0.99801  0.49817  1.0000
  C   C21       1.0  0.38844  0.10104  0.49804  1.0000
  C   C22       1.0  0.44333  0.00057  0.49815  1.0000
  C   C23       1.0  0.61076  0.09847  0.49621  1.0000
  C   C24       1.0  0.55643  0.19863  0.49880  1.0000
  C   C25       1.0  0.39358  0.30170  0.50885  1.0000
  C   C26       1.0  0.44543  0.20045  0.50076  1.0000
  C   C27       1.0  0.61282  0.29879  0.49921  1.0000
  C   C28       1.0  0.55793  0.39745  0.50936  1.0000
  C   C29       1.0  0.61420  0.49881  0.50851  1.0000
  C   C30       1.0  0.61168  0.69573  0.50776  1.0000
  C   C31       1.0  0.55146  0.79544  0.50698  1.0000
  C   C32       1.0  0.38637  0.90137  0.50070  1.0000
  C   C33       1.0  0.43846  0.80099  0.50909  1.0000
  C   C34       1.0  0.60806  0.89681  0.50003  1.0000
  C   C35       1.0  0.88752  0.00028  0.49081  1.0000
  C   C36       1.0  0.72168  0.09896  0.49352  1.0000
  C   C37       1.0  0.77612  0.99912  0.49273  1.0000
  C   C38       1.0  0.94410  0.10075  0.49078  1.0000
  C   C39       1.0  0.88884  0.20007  0.49075  1.0000
  C   C40       1.0  0.72311  0.29883  0.49396  1.0000
  C   C41       1.0  0.77784  0.19911  0.49193  1.0000
  C   C42       1.0  0.94477  0.30054  0.49130  1.0000
  C   C43       1.0  0.88913  0.39991  0.49169  1.0000
  C   C44       1.0  0.72319  0.49829  0.49771  1.0000
  C   C45       1.0  0.77851  0.39894  0.49336  1.0000
  C   C46       1.0  0.94378  0.50077  0.49266  1.0000
  C   C47       1.0  0.88778  0.60033  0.49264  1.0000
  C   C48       1.0  0.72136  0.69885  0.49781  1.0000
  C   C49       1.0  0.77758  0.59940  0.49583  1.0000
  C   C50       1.0  0.94249  0.70110  0.49152  1.0000
  C   C51       1.0  0.88684  0.80047  0.49116  1.0000
  C   C52       1.0  0.71959  0.89861  0.49552  1.0000
  C   C53       1.0  0.77580  0.79969  0.49392  1.0000
  C   C54       1.0  0.94276  0.90094  0.49056  1.0000
  N   N1        1.0  0.26777  0.50658  0.51977  1.0000
  N   N2        1.0  0.45254  0.39459  0.52114  1.0000
  N   N3        1.0  0.56511  0.59655  0.52023  1.0000
  N   N4        1.0  0.37897  0.70945  0.52132  1.0000
  Fe  Fe1       1.0  0.37331  0.47699  0.58518  1.0000
  Cr  Cr1       1.0  0.45178  0.61733  0.58073  1.0000
