data_image0
_chemical_formula_structural       C54N2FeTi
_chemical_formula_sum              "C54 N2 Fe1 Ti1"
_cell_length_a       13.0087
_cell_length_b       12.3373
_cell_length_c       19.7954
_cell_angle_alpha    89.9648
_cell_angle_beta     90.4908
_cell_angle_gamma    90.1272

_space_group_name_H-M_alt    "P 1"
_space_group_IT_number       1

loop_
  _space_group_symop_operation_xyz
  'x, y, z'

loop_
  _atom_site_type_symbol
  _atom_site_label
  _atom_site_symmetry_multiplicity
  _atom_site_fract_x
  _atom_site_fract_y
  _atom_site_fract_z
  _atom_site_occupancy
  C   C1        1.0  0.22450  0.00023  0.49789  1.0000
  C   C2        1.0  0.05653  0.09952  0.50451  1.0000
  C   C3        1.0  0.11258  0.00000  0.50157  1.0000
  C   C4        1.0  0.27951  0.10191  0.49683  1.0000
  C   C5        1.0  0.22187  0.20199  0.49646  1.0000
  C   C6        1.0  0.05321  0.29897  0.50668  1.0000
  C   C7        1.0  0.11107  0.20016  0.50275  1.0000
  C   C8        1.0  0.21200  0.40000  0.49194  1.0000
  C   C9        1.0  0.05053  0.50021  0.50706  1.0000
  C   C10       1.0  0.10472  0.40011  0.50370  1.0000
  C   C11       1.0  0.26372  0.50002  0.47881  1.0000
  C   C12       1.0  0.21164  0.60132  0.48881  1.0000
  C   C13       1.0  0.05277  0.70103  0.50438  1.0000
  C   C14       1.0  0.10475  0.60037  0.50224  1.0000
  C   C15       1.0  0.22194  0.79787  0.49215  1.0000
  C   C16       1.0  0.05639  0.90021  0.50315  1.0000
  C   C17       1.0  0.11094  0.79973  0.50021  1.0000
  C   C18       1.0  0.27901  0.89928  0.49390  1.0000
  C   C19       1.0  0.55665  0.00052  0.50024  1.0000
  C   C20       1.0  0.39140  0.10402  0.49674  1.0000
  C   C21       1.0  0.44580  0.00179  0.49755  1.0000
  C   C22       1.0  0.61335  0.10017  0.50297  1.0000
  C   C23       1.0  0.55862  0.20024  0.50151  1.0000
  C   C24       1.0  0.61581  0.30136  0.50398  1.0000
  C   C25       1.0  0.61150  0.49618  0.50383  1.0000
  C   C26       1.0  0.61277  0.69686  0.50187  1.0000
  C   C27       1.0  0.55688  0.80079  0.49795  1.0000
  C   C28       1.0  0.39097  0.89952  0.49427  1.0000
  C   C29       1.0  0.61285  0.90061  0.50083  1.0000
  C   C30       1.0  0.89014  0.99962  0.50679  1.0000
  C   C31       1.0  0.72373  0.09918  0.50593  1.0000
  C   C32       1.0  0.77924  0.99957  0.50599  1.0000
  C   C33       1.0  0.94578  0.09927  0.50733  1.0000
  C   C34       1.0  0.88928  0.19866  0.50928  1.0000
  C   C35       1.0  0.72491  0.29928  0.50827  1.0000
  C   C36       1.0  0.77931  0.19867  0.50840  1.0000
  C   C37       1.0  0.94343  0.29896  0.51019  1.0000
  C   C38       1.0  0.88841  0.39924  0.51152  1.0000
  C   C39       1.0  0.72250  0.49854  0.50880  1.0000
  C   C40       1.0  0.77887  0.39943  0.51032  1.0000
  C   C41       1.0  0.94195  0.50003  0.51092  1.0000
  C   C42       1.0  0.88735  0.60025  0.51028  1.0000
  C   C43       1.0  0.72302  0.69958  0.50584  1.0000
  C   C44       1.0  0.77716  0.59948  0.50913  1.0000
  C   C45       1.0  0.94260  0.70049  0.50813  1.0000
  C   C46       1.0  0.88846  0.80056  0.50713  1.0000
  C   C47       1.0  0.72323  0.90024  0.50425  1.0000
  C   C48       1.0  0.77824  0.80014  0.50593  1.0000
  C   C49       1.0  0.94547  0.90002  0.50604  1.0000
  C   C50       1.0  0.27163  0.30394  0.48878  1.0000
  C   C51       1.0  0.27114  0.69598  0.48160  1.0000
  C   C52       1.0  0.44897  0.20363  0.49723  1.0000
  C   C53       1.0  0.55746  0.59716  0.50024  1.0000
  C   C54       1.0  0.44802  0.80106  0.49217  1.0000
  N   N1        1.0  0.56121  0.39610  0.50064  1.0000
  N   N2        1.0  0.36132  0.49954  0.45651  1.0000
  Fe  Fe1       1.0  0.41032  0.35376  0.48639  1.0000
  Ti  Ti1       1.0  0.42296  0.64754  0.45118  1.0000
