data_image0
_chemical_formula_structural       C48N6FeCr
_chemical_formula_sum              "C48 N6 Fe1 Cr1"
_cell_length_a       12.7018
_cell_length_b       12.3282
_cell_length_c       20.2915
_cell_angle_alpha    89.9888
_cell_angle_beta     89.9925
_cell_angle_gamma    91.0802

_space_group_name_H-M_alt    "P 1"
_space_group_IT_number       1

loop_
  _space_group_symop_operation_xyz
  'x, y, z'

loop_
  _atom_site_type_symbol
  _atom_site_label
  _atom_site_symmetry_multiplicity
  _atom_site_fract_x
  _atom_site_fract_y
  _atom_site_fract_z
  _atom_site_occupancy
  C   C1        1.0  0.22195  0.00378  0.49940  1.0000
  C   C2        1.0  0.05741  0.10262  0.49994  1.0000
  C   C3        1.0  0.10998  0.00207  0.49956  1.0000
  C   C4        1.0  0.27895  0.10464  0.49933  1.0000
  C   C5        1.0  0.22777  0.20700  0.49948  1.0000
  C   C6        1.0  0.05976  0.30369  0.50016  1.0000
  C   C7        1.0  0.11477  0.20437  0.49993  1.0000
  C   C8        1.0  0.28859  0.30798  0.49937  1.0000
  C   C9        1.0  0.23261  0.41005  0.50033  1.0000
  C   C10       1.0  0.05631  0.50139  0.50008  1.0000
  C   C11       1.0  0.11738  0.40435  0.50022  1.0000
  C   C12       1.0  0.22456  0.60183  0.50054  1.0000
  C   C13       1.0  0.05291  0.69993  0.49983  1.0000
  C   C14       1.0  0.11171  0.60200  0.50016  1.0000
  C   C15       1.0  0.27669  0.70497  0.50052  1.0000
  C   C16       1.0  0.21969  0.80288  0.49973  1.0000
  C   C17       1.0  0.05316  0.90084  0.49959  1.0000
  C   C18       1.0  0.10774  0.80115  0.49958  1.0000
  C   C19       1.0  0.27567  0.90362  0.49965  1.0000
  C   C20       1.0  0.55479  0.99829  0.50044  1.0000
  C   C21       1.0  0.39067  0.10344  0.49950  1.0000
  C   C22       1.0  0.44413  0.00235  0.49993  1.0000
  C   C23       1.0  0.61165  0.09794  0.50089  1.0000
  C   C24       1.0  0.55947  0.19894  0.50059  1.0000
  C   C25       1.0  0.44658  0.20405  0.49952  1.0000
  C   C26       1.0  0.55220  0.79602  0.50090  1.0000
  C   C27       1.0  0.38733  0.90262  0.50006  1.0000
  C   C28       1.0  0.43965  0.80185  0.50102  1.0000
  C   C29       1.0  0.60809  0.89702  0.50057  1.0000
  C   C30       1.0  0.88853  0.99902  0.50035  1.0000
  C   C31       1.0  0.72313  0.09753  0.50116  1.0000
  C   C32       1.0  0.77667  0.99721  0.50072  1.0000
  C   C33       1.0  0.94531  0.10034  0.50039  1.0000
  C   C34       1.0  0.89098  0.20025  0.50073  1.0000
  C   C35       1.0  0.72152  0.29649  0.50083  1.0000
  C   C36       1.0  0.77897  0.19858  0.50121  1.0000
  C   C37       1.0  0.94626  0.30144  0.50036  1.0000
  C   C38       1.0  0.88767  0.39935  0.49990  1.0000
  C   C39       1.0  0.77458  0.40032  0.49955  1.0000
  C   C40       1.0  0.94313  0.49993  0.49969  1.0000
  C   C41       1.0  0.88230  0.59717  0.49949  1.0000
  C   C42       1.0  0.70904  0.69289  0.49992  1.0000
  C   C43       1.0  0.76723  0.59112  0.49891  1.0000
  C   C44       1.0  0.93950  0.69768  0.49974  1.0000
  C   C45       1.0  0.88375  0.79655  0.49981  1.0000
  C   C46       1.0  0.71960  0.89629  0.50049  1.0000
  C   C47       1.0  0.77053  0.79364  0.50006  1.0000
  C   C48       1.0  0.94104  0.89842  0.49988  1.0000
  N   N1        1.0  0.28618  0.50981  0.50077  1.0000
  N   N2        1.0  0.39884  0.30499  0.49875  1.0000
  N   N3        1.0  0.61465  0.29464  0.50061  1.0000
  N   N4        1.0  0.38427  0.70616  0.50189  1.0000
  N   N5        1.0  0.59873  0.69475  0.50097  1.0000
  N   N6        1.0  0.71514  0.49215  0.49818  1.0000
  Fe  Fe1       1.0  0.51745  0.41261  0.48645  1.0000
  Cr  Cr1       1.0  0.46729  0.57259  0.50590  1.0000
