data_image0
_chemical_formula_structural       C52N4FeV
_chemical_formula_sum              "C52 N4 Fe1 V1"
_cell_length_a       13.0046
_cell_length_b       12.3027
_cell_length_c       19.8568
_cell_angle_alpha    90.0267
_cell_angle_beta     90.1734
_cell_angle_gamma    90.2357

_space_group_name_H-M_alt    "P 1"
_space_group_IT_number       1

loop_
  _space_group_symop_operation_xyz
  'x, y, z'

loop_
  _atom_site_type_symbol
  _atom_site_label
  _atom_site_symmetry_multiplicity
  _atom_site_fract_x
  _atom_site_fract_y
  _atom_site_fract_z
  _atom_site_occupancy
  C   C1        1.0  0.22613  0.00282  0.49799  1.0000
  C   C2        1.0  0.05690  0.09998  0.50230  1.0000
  C   C3        1.0  0.11391  0.00119  0.49991  1.0000
  C   C4        1.0  0.28194  0.10618  0.49769  1.0000
  C   C5        1.0  0.22170  0.20576  0.49798  1.0000
  C   C6        1.0  0.05157  0.29911  0.50554  1.0000
  C   C7        1.0  0.11061  0.20126  0.50232  1.0000
  C   C8        1.0  0.21030  0.39908  0.49646  1.0000
  C   C9        1.0  0.04942  0.50053  0.50642  1.0000
  C   C10       1.0  0.10327  0.40012  0.50426  1.0000
  C   C11       1.0  0.26444  0.49874  0.48763  1.0000
  C   C12       1.0  0.21224  0.60035  0.49294  1.0000
  C   C13       1.0  0.05277  0.70138  0.50267  1.0000
  C   C14       1.0  0.10435  0.60042  0.50222  1.0000
  C   C15       1.0  0.22301  0.79800  0.49371  1.0000
  C   C16       1.0  0.05752  0.90074  0.50066  1.0000
  C   C17       1.0  0.11166  0.79997  0.49908  1.0000
  C   C18       1.0  0.27935  0.90055  0.49566  1.0000
  C   C19       1.0  0.55711  0.99830  0.50005  1.0000
  C   C20       1.0  0.39435  0.10549  0.49780  1.0000
  C   C21       1.0  0.44640  0.00141  0.49880  1.0000
  C   C22       1.0  0.61377  0.09778  0.50176  1.0000
  C   C23       1.0  0.55919  0.19662  0.50086  1.0000
  C   C24       1.0  0.61372  0.29920  0.50265  1.0000
  C   C25       1.0  0.60973  0.49896  0.50320  1.0000
  C   C26       1.0  0.61367  0.69622  0.50152  1.0000
  C   C27       1.0  0.55619  0.79843  0.49911  1.0000
  C   C28       1.0  0.39069  0.89952  0.49707  1.0000
  C   C29       1.0  0.61291  0.89860  0.49999  1.0000
  C   C30       1.0  0.89052  0.99947  0.50292  1.0000
  C   C31       1.0  0.72416  0.09833  0.50329  1.0000
  C   C32       1.0  0.77963  0.99904  0.50261  1.0000
  C   C33       1.0  0.94590  0.09947  0.50388  1.0000
  C   C34       1.0  0.88870  0.19837  0.50604  1.0000
  C   C35       1.0  0.72315  0.29807  0.50607  1.0000
  C   C36       1.0  0.77888  0.19821  0.50552  1.0000
  C   C37       1.0  0.94199  0.29904  0.50767  1.0000
  C   C38       1.0  0.88652  0.39914  0.50905  1.0000
  C   C39       1.0  0.72093  0.49892  0.50707  1.0000
  C   C40       1.0  0.77670  0.39898  0.50809  1.0000
  C   C41       1.0  0.94088  0.49981  0.50886  1.0000
  C   C42       1.0  0.88689  0.60023  0.50770  1.0000
  C   C43       1.0  0.72330  0.69931  0.50379  1.0000
  C   C44       1.0  0.77717  0.59912  0.50681  1.0000
  C   C45       1.0  0.94265  0.70069  0.50524  1.0000
  C   C46       1.0  0.88887  0.80069  0.50360  1.0000
  C   C47       1.0  0.72336  0.89948  0.50154  1.0000
  C   C48       1.0  0.77853  0.80003  0.50293  1.0000
  C   C49       1.0  0.94631  0.90021  0.50238  1.0000
  C   C50       1.0  0.27325  0.69515  0.48620  1.0000
  C   C51       1.0  0.55532  0.39710  0.49981  1.0000
  C   C52       1.0  0.44665  0.79960  0.49584  1.0000
  N   N1        1.0  0.26808  0.30607  0.49338  1.0000
  N   N2        1.0  0.45309  0.20087  0.49758  1.0000
  N   N3        1.0  0.36525  0.49824  0.47304  1.0000
  N   N4        1.0  0.55987  0.59958  0.50042  1.0000
  Fe  Fe1       1.0  0.41232  0.35561  0.49021  1.0000
  V   V1        1.0  0.42270  0.64938  0.46013  1.0000
