data_image0
_chemical_formula_structural       C52N5FeV
_chemical_formula_sum              "C52 N5 Fe1 V1"
_cell_length_a       12.876
_cell_length_b       12.3843
_cell_length_c       19.9253
_cell_angle_alpha    90.3658
_cell_angle_beta     90.1328
_cell_angle_gamma    90.8354

_space_group_name_H-M_alt    "P 1"
_space_group_IT_number       1

loop_
  _space_group_symop_operation_xyz
  'x, y, z'

loop_
  _atom_site_type_symbol
  _atom_site_label
  _atom_site_symmetry_multiplicity
  _atom_site_fract_x
  _atom_site_fract_y
  _atom_site_fract_z
  _atom_site_occupancy
  C   C1        1.0  0.22197  0.00306  0.50591  1.0000
  C   C2        1.0  0.05734  0.10247  0.50463  1.0000
  C   C3        1.0  0.11069  0.00222  0.50443  1.0000
  C   C4        1.0  0.27835  0.10433  0.50774  1.0000
  C   C5        1.0  0.22570  0.20658  0.50628  1.0000
  C   C6        1.0  0.05748  0.30262  0.50240  1.0000
  C   C7        1.0  0.11372  0.20378  0.50461  1.0000
  C   C8        1.0  0.28281  0.30884  0.50557  1.0000
  C   C9        1.0  0.22318  0.40958  0.50238  1.0000
  C   C10       1.0  0.05295  0.50279  0.49808  1.0000
  C   C11       1.0  0.11110  0.40424  0.50088  1.0000
  C   C12       1.0  0.21642  0.60425  0.49952  1.0000
  C   C13       1.0  0.05074  0.70249  0.49836  1.0000
  C   C14       1.0  0.10637  0.60397  0.49814  1.0000
  C   C15       1.0  0.27391  0.70442  0.49959  1.0000
  C   C16       1.0  0.21888  0.80269  0.50169  1.0000
  C   C17       1.0  0.05367  0.90208  0.50252  1.0000
  C   C18       1.0  0.10748  0.80209  0.50080  1.0000
  C   C19       1.0  0.27576  0.90308  0.50506  1.0000
  C   C20       1.0  0.55412  0.99905  0.51129  1.0000
  C   C21       1.0  0.38884  0.10149  0.50996  1.0000
  C   C22       1.0  0.44336  0.00047  0.51028  1.0000
  C   C23       1.0  0.61174  0.09775  0.51126  1.0000
  C   C24       1.0  0.55722  0.19643  0.51032  1.0000
  C   C25       1.0  0.39539  0.30407  0.50670  1.0000
  C   C26       1.0  0.44629  0.20112  0.50986  1.0000
  C   C27       1.0  0.61608  0.29288  0.50415  1.0000
  C   C28       1.0  0.56284  0.38890  0.49628  1.0000
  C   C29       1.0  0.55243  0.80004  0.50318  1.0000
  C   C30       1.0  0.38706  0.90004  0.50721  1.0000
  C   C31       1.0  0.44006  0.79856  0.50434  1.0000
  C   C32       1.0  0.60827  0.89964  0.50798  1.0000
  C   C33       1.0  0.88856  0.00028  0.50472  1.0000
  C   C34       1.0  0.72275  0.09837  0.50862  1.0000
  C   C35       1.0  0.77702  0.99886  0.50682  1.0000
  C   C36       1.0  0.94586  0.10049  0.50468  1.0000
  C   C37       1.0  0.89116  0.19975  0.50388  1.0000
  C   C38       1.0  0.72600  0.29576  0.50126  1.0000
  C   C39       1.0  0.78029  0.19764  0.50518  1.0000
  C   C40       1.0  0.94607  0.30069  0.50156  1.0000
  C   C41       1.0  0.88978  0.39956  0.49800  1.0000
  C   C42       1.0  0.72116  0.49314  0.48765  1.0000
  C   C43       1.0  0.77937  0.39682  0.49589  1.0000
  C   C44       1.0  0.94179  0.50141  0.49599  1.0000
  C   C45       1.0  0.88344  0.60014  0.49414  1.0000
  C   C46       1.0  0.71535  0.70045  0.49411  1.0000
  C   C47       1.0  0.77073  0.59837  0.49034  1.0000
  C   C48       1.0  0.93946  0.70049  0.49716  1.0000
  C   C49       1.0  0.88516  0.80007  0.49998  1.0000
  C   C50       1.0  0.71973  0.89951  0.50552  1.0000
  C   C51       1.0  0.77380  0.79917  0.50051  1.0000
  C   C52       1.0  0.94228  0.90051  0.50251  1.0000
  N   N1        1.0  0.27064  0.50900  0.50109  1.0000
  N   N2        1.0  0.45743  0.39683  0.50230  1.0000
  N   N3        1.0  0.61518  0.48218  0.47915  1.0000
  N   N4        1.0  0.38255  0.70098  0.49941  1.0000
  N   N5        1.0  0.60750  0.70536  0.49196  1.0000
  Fe  Fe1       1.0  0.41894  0.54574  0.50001  1.0000
  V   V1        1.0  0.52116  0.59397  0.44797  1.0000
