data_image0
_chemical_formula_structural       C52N4CoFe
_chemical_formula_sum              "C52 N4 Co1 Fe1"
_cell_length_a       12.6988
_cell_length_b       12.4821
_cell_length_c       20.0424
_cell_angle_alpha    90.0181
_cell_angle_beta     89.9875
_cell_angle_gamma    90.0005

_space_group_name_H-M_alt    "P 1"
_space_group_IT_number       1

loop_
  _space_group_symop_operation_xyz
  'x, y, z'

loop_
  _atom_site_type_symbol
  _atom_site_label
  _atom_site_symmetry_multiplicity
  _atom_site_fract_x
  _atom_site_fract_y
  _atom_site_fract_z
  _atom_site_occupancy
  C   C1        1.0  0.22063  0.99994  0.50002  1.0000
  C   C2        1.0  0.05513  0.10073  0.50002  1.0000
  C   C3        1.0  0.10949  0.99970  0.50001  1.0000
  C   C4        1.0  0.27625  0.09950  0.50000  1.0000
  C   C5        1.0  0.22373  0.20061  0.49997  1.0000
  C   C6        1.0  0.05537  0.30085  0.50002  1.0000
  C   C7        1.0  0.11140  0.20081  0.50001  1.0000
  C   C8        1.0  0.28327  0.30012  0.49988  1.0000
  C   C9        1.0  0.22539  0.39971  0.49990  1.0000
  C   C10       1.0  0.05600  0.50073  0.50002  1.0000
  C   C11       1.0  0.11285  0.40077  0.49999  1.0000
  C   C12       1.0  0.28310  0.50001  0.49983  1.0000
  C   C13       1.0  0.22715  0.60086  0.49995  1.0000
  C   C14       1.0  0.05558  0.69903  0.50002  1.0000
  C   C15       1.0  0.11368  0.60015  0.50001  1.0000
  C   C16       1.0  0.28408  0.70112  0.49997  1.0000
  C   C17       1.0  0.22391  0.79962  0.50001  1.0000
  C   C18       1.0  0.05515  0.89878  0.50000  1.0000
  C   C19       1.0  0.11132  0.79879  0.50001  1.0000
  C   C20       1.0  0.27650  0.90032  0.50002  1.0000
  C   C21       1.0  0.55467  0.99907  0.50005  1.0000
  C   C22       1.0  0.38751  0.09764  0.50000  1.0000
  C   C23       1.0  0.44375  0.99908  0.50005  1.0000
  C   C24       1.0  0.61092  0.09763  0.50000  1.0000
  C   C25       1.0  0.55495  0.19476  0.49989  1.0000
  C   C26       1.0  0.44350  0.19476  0.49989  1.0000
  C   C27       1.0  0.55526  0.80248  0.50001  1.0000
  C   C28       1.0  0.38803  0.90060  0.50004  1.0000
  C   C29       1.0  0.44315  0.80249  0.50001  1.0000
  C   C30       1.0  0.61038  0.90059  0.50004  1.0000
  C   C31       1.0  0.88893  0.99969  0.50001  1.0000
  C   C32       1.0  0.72218  0.09949  0.50001  1.0000
  C   C33       1.0  0.77779  0.99992  0.50002  1.0000
  C   C34       1.0  0.94331  0.10072  0.50002  1.0000
  C   C35       1.0  0.88704  0.20080  0.50001  1.0000
  C   C36       1.0  0.71518  0.30010  0.49988  1.0000
  C   C37       1.0  0.77472  0.20059  0.49998  1.0000
  C   C38       1.0  0.94308  0.30084  0.50002  1.0000
  C   C39       1.0  0.88560  0.40075  0.50000  1.0000
  C   C40       1.0  0.71534  0.49999  0.49983  1.0000
  C   C41       1.0  0.77305  0.39969  0.49990  1.0000
  C   C42       1.0  0.94243  0.50072  0.50002  1.0000
  C   C43       1.0  0.88474  0.60013  0.50001  1.0000
  C   C44       1.0  0.71433  0.70110  0.49997  1.0000
  C   C45       1.0  0.77127  0.60084  0.49995  1.0000
  C   C46       1.0  0.94283  0.69903  0.50002  1.0000
  C   C47       1.0  0.88709  0.79877  0.50001  1.0000
  C   C48       1.0  0.72192  0.90031  0.50003  1.0000
  C   C49       1.0  0.77450  0.79960  0.50001  1.0000
  C   C50       1.0  0.94326  0.89877  0.50000  1.0000
  C   C51       1.0  0.39536  0.29714  0.49978  1.0000
  C   C52       1.0  0.60309  0.29714  0.49979  1.0000
  N   N1        1.0  0.38863  0.49787  0.49966  1.0000
  N   N2        1.0  0.60980  0.49785  0.49965  1.0000
  N   N3        1.0  0.39321  0.70433  0.49994  1.0000
  N   N4        1.0  0.60520  0.70432  0.49995  1.0000
  Co  Co1       1.0  0.49922  0.41046  0.49963  1.0000
  Fe  Fe1       1.0  0.49922  0.59032  0.49974  1.0000
