data_image0
_chemical_formula_structural       C54N2ZnFe
_chemical_formula_sum              "C54 N2 Zn1 Fe1"
_cell_length_a       12.8071
_cell_length_b       12.5149
_cell_length_c       19.8211
_cell_angle_alpha    90.0013
_cell_angle_beta     89.984
_cell_angle_gamma    89.8143

_space_group_name_H-M_alt    "P 1"
_space_group_IT_number       1

loop_
  _space_group_symop_operation_xyz
  'x, y, z'

loop_
  _atom_site_type_symbol
  _atom_site_label
  _atom_site_symmetry_multiplicity
  _atom_site_fract_x
  _atom_site_fract_y
  _atom_site_fract_z
  _atom_site_occupancy
  C   C1        1.0  0.22013  0.99892  0.50003  1.0000
  C   C2        1.0  0.05447  0.09999  0.50002  1.0000
  C   C3        1.0  0.10940  0.99954  0.50002  1.0000
  C   C4        1.0  0.27543  0.09811  0.50000  1.0000
  C   C5        1.0  0.22138  0.19815  0.49997  1.0000
  C   C6        1.0  0.05496  0.29988  0.49999  1.0000
  C   C7        1.0  0.10984  0.19964  0.50000  1.0000
  C   C8        1.0  0.28023  0.29627  0.49989  1.0000
  C   C9        1.0  0.22474  0.39810  0.49991  1.0000
  C   C10       1.0  0.05608  0.49936  0.49999  1.0000
  C   C11       1.0  0.11275  0.39907  0.49997  1.0000
  C   C12       1.0  0.27912  0.50035  0.49985  1.0000
  C   C13       1.0  0.22267  0.60120  0.49995  1.0000
  C   C14       1.0  0.05548  0.70016  0.50002  1.0000
  C   C15       1.0  0.11181  0.59984  0.50000  1.0000
  C   C16       1.0  0.28159  0.70018  0.49999  1.0000
  C   C17       1.0  0.22308  0.79970  0.50003  1.0000
  C   C18       1.0  0.05492  0.89934  0.50003  1.0000
  C   C19       1.0  0.11128  0.79973  0.50002  1.0000
  C   C20       1.0  0.27645  0.89980  0.50004  1.0000
  C   C21       1.0  0.55470  0.99950  0.50003  1.0000
  C   C22       1.0  0.38666  0.09704  0.49998  1.0000
  C   C23       1.0  0.44382  0.99939  0.50003  1.0000
  C   C24       1.0  0.61005  0.09798  0.49997  1.0000
  C   C25       1.0  0.55400  0.19647  0.49989  1.0000
  C   C26       1.0  0.44037  0.19492  0.49989  1.0000
  C   C27       1.0  0.55568  0.80336  0.50002  1.0000
  C   C28       1.0  0.38779  0.90130  0.50006  1.0000
  C   C29       1.0  0.44382  0.80413  0.50005  1.0000
  C   C30       1.0  0.61116  0.90092  0.50005  1.0000
  C   C31       1.0  0.88840  0.00004  0.50002  1.0000
  C   C32       1.0  0.72150  0.09989  0.49999  1.0000
  C   C33       1.0  0.77759  0.00005  0.50002  1.0000
  C   C34       1.0  0.94327  0.10025  0.50002  1.0000
  C   C35       1.0  0.88787  0.20017  0.50000  1.0000
  C   C36       1.0  0.71833  0.29943  0.49991  1.0000
  C   C37       1.0  0.77611  0.19980  0.49997  1.0000
  C   C38       1.0  0.94335  0.30015  0.49999  1.0000
  C   C39       1.0  0.88675  0.40031  0.49997  1.0000
  C   C40       1.0  0.72155  0.50235  0.49990  1.0000
  C   C41       1.0  0.77533  0.40045  0.49993  1.0000
  C   C42       1.0  0.94418  0.49985  0.49999  1.0000
  C   C43       1.0  0.88863  0.60061  0.50000  1.0000
  C   C44       1.0  0.71837  0.70129  0.49996  1.0000
  C   C45       1.0  0.77786  0.60229  0.49996  1.0000
  C   C46       1.0  0.94448  0.70050  0.50002  1.0000
  C   C47       1.0  0.88796  0.80009  0.50003  1.0000
  C   C48       1.0  0.72236  0.90064  0.50004  1.0000
  C   C49       1.0  0.77620  0.80044  0.50002  1.0000
  C   C50       1.0  0.94345  0.89959  0.50003  1.0000
  C   C51       1.0  0.60877  0.29396  0.49986  1.0000
  C   C52       1.0  0.61447  0.51721  0.49971  1.0000
  C   C53       1.0  0.39295  0.70373  0.50000  1.0000
  C   C54       1.0  0.60678  0.70183  0.49991  1.0000
  N   N1        1.0  0.38695  0.28973  0.49980  1.0000
  N   N2        1.0  0.38196  0.50695  0.49970  1.0000
  Zn  Zn1       1.0  0.49845  0.40124  0.49965  1.0000
  Fe  Fe1       1.0  0.49665  0.58736  0.49941  1.0000
