data_image0
_chemical_formula_structural       C52N4CoFe
_chemical_formula_sum              "C52 N4 Co1 Fe1"
_cell_length_a       13.0276
_cell_length_b       12.2987
_cell_length_c       19.828
_cell_angle_alpha    90.0033
_cell_angle_beta     89.9818
_cell_angle_gamma    90.1082

_space_group_name_H-M_alt    "P 1"
_space_group_IT_number       1

loop_
  _space_group_symop_operation_xyz
  'x, y, z'

loop_
  _atom_site_type_symbol
  _atom_site_label
  _atom_site_symmetry_multiplicity
  _atom_site_fract_x
  _atom_site_fract_y
  _atom_site_fract_z
  _atom_site_occupancy
  C   C1        1.0  0.22673  0.00243  0.49979  1.0000
  C   C2        1.0  0.05696  0.09976  0.49997  1.0000
  C   C3        1.0  0.11428  0.00089  0.49991  1.0000
  C   C4        1.0  0.28226  0.10579  0.49961  1.0000
  C   C5        1.0  0.22192  0.20543  0.49958  1.0000
  C   C6        1.0  0.05076  0.29848  0.50006  1.0000
  C   C7        1.0  0.11061  0.20093  0.49988  1.0000
  C   C8        1.0  0.20967  0.39738  0.49959  1.0000
  C   C9        1.0  0.04870  0.49989  0.50020  1.0000
  C   C10       1.0  0.10243  0.39906  0.50003  1.0000
  C   C11       1.0  0.26441  0.49721  0.49932  1.0000
  C   C12       1.0  0.21176  0.59909  0.49972  1.0000
  C   C13       1.0  0.05255  0.70124  0.50014  1.0000
  C   C14       1.0  0.10351  0.59985  0.50011  1.0000
  C   C15       1.0  0.22279  0.79817  0.49983  1.0000
  C   C16       1.0  0.05764  0.90079  0.50002  1.0000
  C   C17       1.0  0.11158  0.79990  0.50002  1.0000
  C   C18       1.0  0.28020  0.89986  0.49980  1.0000
  C   C19       1.0  0.55753  0.99902  0.49996  1.0000
  C   C20       1.0  0.39482  0.10555  0.49958  1.0000
  C   C21       1.0  0.44699  0.00101  0.49981  1.0000
  C   C22       1.0  0.61378  0.09849  0.49994  1.0000
  C   C23       1.0  0.55885  0.19741  0.49964  1.0000
  C   C24       1.0  0.61294  0.30035  0.49959  1.0000
  C   C25       1.0  0.60928  0.50085  0.49951  1.0000
  C   C26       1.0  0.61577  0.69773  0.49977  1.0000
  C   C27       1.0  0.55845  0.79966  0.49987  1.0000
  C   C28       1.0  0.39194  0.89853  0.49981  1.0000
  C   C29       1.0  0.61386  0.89956  0.50003  1.0000
  C   C30       1.0  0.89077  0.99982  0.50010  1.0000
  C   C31       1.0  0.72407  0.09895  0.50007  1.0000
  C   C32       1.0  0.78000  0.99970  0.50013  1.0000
  C   C33       1.0  0.94595  0.09959  0.50008  1.0000
  C   C34       1.0  0.88823  0.19853  0.50011  1.0000
  C   C35       1.0  0.72251  0.29888  0.49988  1.0000
  C   C36       1.0  0.77843  0.19882  0.50005  1.0000
  C   C37       1.0  0.94132  0.29890  0.50015  1.0000
  C   C38       1.0  0.88587  0.39921  0.50015  1.0000
  C   C39       1.0  0.72074  0.49976  0.49982  1.0000
  C   C40       1.0  0.77627  0.39952  0.49996  1.0000
  C   C41       1.0  0.94044  0.49962  0.50022  1.0000
  C   C42       1.0  0.88709  0.60032  0.50016  1.0000
  C   C43       1.0  0.72466  0.70011  0.49995  1.0000
  C   C44       1.0  0.77756  0.59943  0.49998  1.0000
  C   C45       1.0  0.94278  0.70071  0.50016  1.0000
  C   C46       1.0  0.88937  0.80116  0.50011  1.0000
  C   C47       1.0  0.72422  0.90029  0.50010  1.0000
  C   C48       1.0  0.77956  0.80080  0.50007  1.0000
  C   C49       1.0  0.94662  0.90050  0.50009  1.0000
  C   C50       1.0  0.27260  0.69481  0.49956  1.0000
  C   C51       1.0  0.55348  0.39807  0.49931  1.0000
  C   C52       1.0  0.44910  0.79862  0.49976  1.0000
  N   N1        1.0  0.26895  0.30570  0.49930  1.0000
  N   N2        1.0  0.45296  0.20120  0.49937  1.0000
  N   N3        1.0  0.36681  0.49547  0.49871  1.0000
  N   N4        1.0  0.56156  0.60233  0.49949  1.0000
  Co  Co1       1.0  0.41270  0.35382  0.49883  1.0000
  Fe  Fe1       1.0  0.41282  0.64595  0.49918  1.0000
