data_image0
_chemical_formula_structural       C54N4FeCr
_chemical_formula_sum              "C54 N4 Fe1 Cr1"
_cell_length_a       12.9165
_cell_length_b       12.3168
_cell_length_c       20.0591
_cell_angle_alpha    90.99
_cell_angle_beta     95.2364
_cell_angle_gamma    90.9449

_space_group_name_H-M_alt    "P 1"
_space_group_IT_number       1

loop_
  _space_group_symop_operation_xyz
  'x, y, z'

loop_
  _atom_site_type_symbol
  _atom_site_label
  _atom_site_symmetry_multiplicity
  _atom_site_fract_x
  _atom_site_fract_y
  _atom_site_fract_z
  _atom_site_occupancy
  C   C1        1.0  0.22276  0.00316  0.49999  1.0000
  C   C2        1.0  0.05765  0.10192  0.49850  1.0000
  C   C3        1.0  0.11162  0.00216  0.49933  1.0000
  C   C4        1.0  0.27987  0.10380  0.49999  1.0000
  C   C5        1.0  0.22679  0.20590  0.49994  1.0000
  C   C6        1.0  0.05923  0.30197  0.49790  1.0000
  C   C7        1.0  0.11519  0.20292  0.49888  1.0000
  C   C8        1.0  0.28422  0.30858  0.50058  1.0000
  C   C9        1.0  0.22633  0.40910  0.50053  1.0000
  C   C10       1.0  0.05540  0.50144  0.49832  1.0000
  C   C11       1.0  0.11437  0.40368  0.49873  1.0000
  C   C12       1.0  0.21724  0.60423  0.50037  1.0000
  C   C13       1.0  0.05298  0.70258  0.49879  1.0000
  C   C14       1.0  0.10844  0.60326  0.49909  1.0000
  C   C15       1.0  0.27270  0.70466  0.50063  1.0000
  C   C16       1.0  0.21885  0.80341  0.49993  1.0000
  C   C17       1.0  0.05403  0.90206  0.49897  1.0000
  C   C18       1.0  0.10844  0.80268  0.49930  1.0000
  C   C19       1.0  0.27673  0.90263  0.50019  1.0000
  C   C20       1.0  0.55507  0.99528  0.49846  1.0000
  C   C21       1.0  0.39049  0.10067  0.49942  1.0000
  C   C22       1.0  0.44449  0.99841  0.49932  1.0000
  C   C23       1.0  0.61197  0.09587  0.49710  1.0000
  C   C24       1.0  0.55803  0.19640  0.49710  1.0000
  C   C25       1.0  0.39638  0.30528  0.50005  1.0000
  C   C26       1.0  0.44768  0.20118  0.49868  1.0000
  C   C27       1.0  0.61565  0.29558  0.49579  1.0000
  C   C28       1.0  0.56212  0.39440  0.49729  1.0000
  C   C29       1.0  0.61754  0.49482  0.49710  1.0000
  C   C30       1.0  0.60880  0.69001  0.49922  1.0000
  C   C31       1.0  0.55104  0.79055  0.49996  1.0000
  C   C32       1.0  0.38731  0.89789  0.50006  1.0000
  C   C33       1.0  0.43893  0.79387  0.50082  1.0000
  C   C34       1.0  0.60818  0.89318  0.49873  1.0000
  C   C35       1.0  0.88831  0.99929  0.49740  1.0000
  C   C36       1.0  0.72289  0.09683  0.49627  1.0000
  C   C37       1.0  0.77686  0.99709  0.49707  1.0000
  C   C38       1.0  0.94608  0.09968  0.49725  1.0000
  C   C39       1.0  0.89117  0.19892  0.49604  1.0000
  C   C40       1.0  0.72585  0.29624  0.49480  1.0000
  C   C41       1.0  0.78030  0.19688  0.49533  1.0000
  C   C42       1.0  0.94781  0.29972  0.49638  1.0000
  C   C43       1.0  0.89147  0.39837  0.49584  1.0000
  C   C44       1.0  0.72597  0.49571  0.49577  1.0000
  C   C45       1.0  0.78126  0.39635  0.49495  1.0000
  C   C46       1.0  0.94546  0.49973  0.49704  1.0000
  C   C47       1.0  0.88887  0.59921  0.49721  1.0000
  C   C48       1.0  0.72028  0.69533  0.49768  1.0000
  C   C49       1.0  0.77905  0.59752  0.49680  1.0000
  C   C50       1.0  0.94281  0.70056  0.49807  1.0000
  C   C51       1.0  0.88654  0.79923  0.49798  1.0000
  C   C52       1.0  0.71949  0.89611  0.49787  1.0000
  C   C53       1.0  0.77531  0.79702  0.49780  1.0000
  C   C54       1.0  0.94317  0.90003  0.49819  1.0000
  N   N1        1.0  0.27572  0.51032  0.50213  1.0000
  N   N2        1.0  0.45576  0.40044  0.50091  1.0000
  N   N3        1.0  0.55982  0.58883  0.50025  1.0000
  N   N4        1.0  0.37997  0.69878  0.50254  1.0000
  Fe  Fe1       1.0  0.41882  0.54974  0.50768  1.0000
  Cr  Cr1       1.0  0.43641  0.55421  0.62569  1.0000
