data_image0
_chemical_formula_structural       C52N4FeMn
_chemical_formula_sum              "C52 N4 Fe1 Mn1"
_cell_length_a       12.6697
_cell_length_b       12.5405
_cell_length_c       19.9954
_cell_angle_alpha    90.0416
_cell_angle_beta     90.0937
_cell_angle_gamma    89.6718

_space_group_name_H-M_alt    "P 1"
_space_group_IT_number       1

loop_
  _space_group_symop_operation_xyz
  'x, y, z'

loop_
  _atom_site_type_symbol
  _atom_site_label
  _atom_site_symmetry_multiplicity
  _atom_site_fract_x
  _atom_site_fract_y
  _atom_site_fract_z
  _atom_site_occupancy
  C   C1        1.0  0.22179  0.99860  0.50041  1.0000
  C   C2        1.0  0.05447  0.09887  0.50042  1.0000
  C   C3        1.0  0.11027  0.99916  0.50054  1.0000
  C   C4        1.0  0.27733  0.09682  0.50090  1.0000
  C   C5        1.0  0.22110  0.19490  0.50107  1.0000
  C   C6        1.0  0.05546  0.29874  0.50019  1.0000
  C   C7        1.0  0.10949  0.19754  0.50045  1.0000
  C   C8        1.0  0.27763  0.29213  0.50193  1.0000
  C   C9        1.0  0.06233  0.49845  0.49972  1.0000
  C   C10       1.0  0.11570  0.39575  0.50030  1.0000
  C   C11       1.0  0.05857  0.69914  0.49984  1.0000
  C   C12       1.0  0.11832  0.60055  0.49940  1.0000
  C   C13       1.0  0.27719  0.70382  0.49865  1.0000
  C   C14       1.0  0.22243  0.80174  0.49947  1.0000
  C   C15       1.0  0.05567  0.89958  0.50050  1.0000
  C   C16       1.0  0.11107  0.80007  0.50004  1.0000
  C   C17       1.0  0.27772  0.90036  0.49971  1.0000
  C   C18       1.0  0.55606  0.99871  0.49965  1.0000
  C   C19       1.0  0.38906  0.09692  0.50109  1.0000
  C   C20       1.0  0.44468  0.99836  0.49993  1.0000
  C   C21       1.0  0.61134  0.09743  0.50064  1.0000
  C   C22       1.0  0.55664  0.19527  0.50194  1.0000
  C   C23       1.0  0.44349  0.19586  0.50223  1.0000
  C   C24       1.0  0.55566  0.60681  0.49813  1.0000
  C   C25       1.0  0.39025  0.70253  0.49804  1.0000
  C   C26       1.0  0.61222  0.70411  0.49791  1.0000
  C   C27       1.0  0.55632  0.80232  0.49791  1.0000
  C   C28       1.0  0.38917  0.90025  0.49915  1.0000
  C   C29       1.0  0.44473  0.80162  0.49816  1.0000
  C   C30       1.0  0.61191  0.90048  0.49864  1.0000
  C   C31       1.0  0.88909  0.99972  0.50026  1.0000
  C   C32       1.0  0.72272  0.09921  0.50042  1.0000
  C   C33       1.0  0.77798  0.99962  0.49986  1.0000
  C   C34       1.0  0.94275  0.09989  0.50031  1.0000
  C   C35       1.0  0.88753  0.20058  0.50028  1.0000
  C   C36       1.0  0.71553  0.29902  0.50135  1.0000
  C   C37       1.0  0.77532  0.20015  0.50073  1.0000
  C   C38       1.0  0.94291  0.30048  0.50010  1.0000
  C   C39       1.0  0.88669  0.40058  0.50012  1.0000
  C   C40       1.0  0.71857  0.50364  0.49976  1.0000
  C   C41       1.0  0.77182  0.40085  0.50058  1.0000
  C   C42       1.0  0.94750  0.49871  0.49977  1.0000
  C   C43       1.0  0.89118  0.59895  0.49963  1.0000
  C   C44       1.0  0.72401  0.70152  0.49865  1.0000
  C   C45       1.0  0.77872  0.60074  0.49926  1.0000
  C   C46       1.0  0.94632  0.69878  0.49988  1.0000
  C   C47       1.0  0.89087  0.79929  0.49993  1.0000
  C   C48       1.0  0.72339  0.90002  0.49907  1.0000
  C   C49       1.0  0.77914  0.80030  0.49912  1.0000
  C   C50       1.0  0.94456  0.89950  0.50038  1.0000
  C   C51       1.0  0.38922  0.29488  0.50301  1.0000
  C   C52       1.0  0.44329  0.60255  0.49799  1.0000
  N   N1        1.0  0.22376  0.38916  0.50124  1.0000
  N   N2        1.0  0.22734  0.60667  0.49864  1.0000
  N   N3        1.0  0.60673  0.29266  0.50250  1.0000
  N   N4        1.0  0.61117  0.51073  0.49941  1.0000
  Fe  Fe1       1.0  0.33483  0.48877  0.49960  1.0000
  Mn  Mn1       1.0  0.49529  0.41169  0.50368  1.0000
