data_image0
_chemical_formula_structural       C52N4CoFe
_chemical_formula_sum              "C52 N4 Co1 Fe1"
_cell_length_a       12.6535
_cell_length_b       12.538
_cell_length_c       20.0247
_cell_angle_alpha    89.9954
_cell_angle_beta     90.0381
_cell_angle_gamma    89.8324

_space_group_name_H-M_alt    "P 1"
_space_group_IT_number       1

loop_
  _space_group_symop_operation_xyz
  'x, y, z'

loop_
  _atom_site_type_symbol
  _atom_site_label
  _atom_site_symmetry_multiplicity
  _atom_site_fract_x
  _atom_site_fract_y
  _atom_site_fract_z
  _atom_site_occupancy
  C   C1        1.0  0.22196  0.99880  0.49997  1.0000
  C   C2        1.0  0.05465  0.09901  0.49997  1.0000
  C   C3        1.0  0.11032  0.99936  0.49997  1.0000
  C   C4        1.0  0.27751  0.09717  0.50000  1.0000
  C   C5        1.0  0.22148  0.19537  0.50005  1.0000
  C   C6        1.0  0.05627  0.29910  0.50002  1.0000
  C   C7        1.0  0.10985  0.19802  0.50000  1.0000
  C   C8        1.0  0.27778  0.29284  0.50020  1.0000
  C   C9        1.0  0.06261  0.49861  0.50005  1.0000
  C   C10       1.0  0.11764  0.39630  0.50010  1.0000
  C   C11       1.0  0.05838  0.69923  0.50000  1.0000
  C   C12       1.0  0.11851  0.60096  0.50003  1.0000
  C   C13       1.0  0.27676  0.70355  0.50003  1.0000
  C   C14       1.0  0.22220  0.80172  0.50000  1.0000
  C   C15       1.0  0.05568  0.89974  0.49999  1.0000
  C   C16       1.0  0.11095  0.80020  0.50000  1.0000
  C   C17       1.0  0.27764  0.90046  0.49997  1.0000
  C   C18       1.0  0.55617  0.99857  0.49993  1.0000
  C   C19       1.0  0.38922  0.09735  0.50001  1.0000
  C   C20       1.0  0.44466  0.99851  0.49994  1.0000
  C   C21       1.0  0.61160  0.09730  0.49998  1.0000
  C   C22       1.0  0.55725  0.19556  0.50011  1.0000
  C   C23       1.0  0.44374  0.19658  0.50014  1.0000
  C   C24       1.0  0.55537  0.60606  0.50012  1.0000
  C   C25       1.0  0.38988  0.70209  0.50006  1.0000
  C   C26       1.0  0.61178  0.70361  0.50001  1.0000
  C   C27       1.0  0.55617  0.80193  0.49996  1.0000
  C   C28       1.0  0.38917  0.90021  0.49994  1.0000
  C   C29       1.0  0.44447  0.80119  0.49998  1.0000
  C   C30       1.0  0.61171  0.90016  0.49993  1.0000
  C   C31       1.0  0.88920  0.99957  0.49997  1.0000
  C   C32       1.0  0.72293  0.09896  0.49998  1.0000
  C   C33       1.0  0.77806  0.99933  0.49996  1.0000
  C   C34       1.0  0.94306  0.09998  0.49997  1.0000
  C   C35       1.0  0.88798  0.20060  0.49998  1.0000
  C   C36       1.0  0.71550  0.29828  0.50011  1.0000
  C   C37       1.0  0.77569  0.19988  0.50001  1.0000
  C   C38       1.0  0.94338  0.30064  0.50000  1.0000
  C   C39       1.0  0.88640  0.40042  0.50003  1.0000
  C   C40       1.0  0.71704  0.50320  0.50011  1.0000
  C   C41       1.0  0.77157  0.40058  0.50010  1.0000
  C   C42       1.0  0.94783  0.49880  0.50002  1.0000
  C   C43       1.0  0.89090  0.59871  0.50000  1.0000
  C   C44       1.0  0.72365  0.70095  0.49999  1.0000
  C   C45       1.0  0.77812  0.60038  0.50003  1.0000
  C   C46       1.0  0.94608  0.69864  0.49999  1.0000
  C   C47       1.0  0.89069  0.79908  0.49998  1.0000
  C   C48       1.0  0.72340  0.89969  0.49994  1.0000
  C   C49       1.0  0.77901  0.80006  0.49996  1.0000
  C   C50       1.0  0.94453  0.89952  0.49998  1.0000
  C   C51       1.0  0.38971  0.29572  0.50031  1.0000
  C   C52       1.0  0.44219  0.60148  0.50015  1.0000
  N   N1        1.0  0.22578  0.38985  0.50025  1.0000
  N   N2        1.0  0.22708  0.60665  0.50004  1.0000
  N   N3        1.0  0.60706  0.29232  0.50023  1.0000
  N   N4        1.0  0.60945  0.51036  0.50018  1.0000
  Co  Co1       1.0  0.33795  0.49218  0.50019  1.0000
  Fe  Fe1       1.0  0.49072  0.41027  0.50058  1.0000
