data_image0
_chemical_formula_structural       C52N4FeCr
_chemical_formula_sum              "C52 N4 Fe1 Cr1"
_cell_length_a       12.6979
_cell_length_b       12.5615
_cell_length_c       19.9177
_cell_angle_alpha    89.9981
_cell_angle_beta     90.0397
_cell_angle_gamma    89.6418

_space_group_name_H-M_alt    "P 1"
_space_group_IT_number       1

loop_
  _space_group_symop_operation_xyz
  'x, y, z'

loop_
  _atom_site_type_symbol
  _atom_site_label
  _atom_site_symmetry_multiplicity
  _atom_site_fract_x
  _atom_site_fract_y
  _atom_site_fract_z
  _atom_site_occupancy
  C   C1        1.0  0.22190  0.99752  0.49995  1.0000
  C   C2        1.0  0.05369  0.09783  0.49995  1.0000
  C   C3        1.0  0.11031  0.99821  0.49996  1.0000
  C   C4        1.0  0.27684  0.09629  0.49999  1.0000
  C   C5        1.0  0.21947  0.19369  0.50008  1.0000
  C   C6        1.0  0.05401  0.29733  0.50003  1.0000
  C   C7        1.0  0.10816  0.19639  0.50001  1.0000
  C   C8        1.0  0.27418  0.29109  0.50033  1.0000
  C   C9        1.0  0.06175  0.49810  0.50002  1.0000
  C   C10       1.0  0.11314  0.39457  0.50015  1.0000
  C   C11       1.0  0.06014  0.69817  0.49997  1.0000
  C   C12       1.0  0.11941  0.59894  0.49998  1.0000
  C   C13       1.0  0.27884  0.70129  0.49997  1.0000
  C   C14       1.0  0.22368  0.79978  0.49996  1.0000
  C   C15       1.0  0.05625  0.89864  0.49998  1.0000
  C   C16       1.0  0.11232  0.79909  0.49998  1.0000
  C   C17       1.0  0.27819  0.89913  0.49994  1.0000
  C   C18       1.0  0.55558  0.00005  0.49987  1.0000
  C   C19       1.0  0.38835  0.09865  0.50000  1.0000
  C   C20       1.0  0.44420  0.99934  0.49990  1.0000
  C   C21       1.0  0.61013  0.09947  0.49995  1.0000
  C   C22       1.0  0.55539  0.19839  0.50018  1.0000
  C   C23       1.0  0.44159  0.19997  0.50020  1.0000
  C   C24       1.0  0.55804  0.60696  0.50005  1.0000
  C   C25       1.0  0.39170  0.69945  0.50000  1.0000
  C   C26       1.0  0.61324  0.70489  0.49994  1.0000
  C   C27       1.0  0.55673  0.80275  0.49989  1.0000
  C   C28       1.0  0.38957  0.89975  0.49990  1.0000
  C   C29       1.0  0.44520  0.80022  0.49992  1.0000
  C   C30       1.0  0.61164  0.90143  0.49987  1.0000
  C   C31       1.0  0.88870  0.99950  0.49995  1.0000
  C   C32       1.0  0.72163  0.10012  0.49995  1.0000
  C   C33       1.0  0.77742  0.00022  0.49993  1.0000
  C   C34       1.0  0.94212  0.09948  0.49993  1.0000
  C   C35       1.0  0.88669  0.20028  0.49995  1.0000
  C   C36       1.0  0.71553  0.30012  0.50019  1.0000
  C   C37       1.0  0.77450  0.20079  0.50001  1.0000
  C   C38       1.0  0.94208  0.29966  0.49998  1.0000
  C   C39       1.0  0.88701  0.40039  0.50002  1.0000
  C   C40       1.0  0.72200  0.50514  0.50009  1.0000
  C   C41       1.0  0.77304  0.40131  0.50013  1.0000
  C   C42       1.0  0.94773  0.49894  0.49998  1.0000
  C   C43       1.0  0.89258  0.59964  0.49995  1.0000
  C   C44       1.0  0.72497  0.70227  0.49994  1.0000
  C   C45       1.0  0.78069  0.60214  0.49996  1.0000
  C   C46       1.0  0.94782  0.69881  0.49997  1.0000
  C   C47       1.0  0.89158  0.79933  0.49998  1.0000
  C   C48       1.0  0.72330  0.90063  0.49991  1.0000
  C   C49       1.0  0.77976  0.80098  0.49994  1.0000
  C   C50       1.0  0.94492  0.89933  0.49998  1.0000
  C   C51       1.0  0.38492  0.29880  0.50047  1.0000
  C   C52       1.0  0.44493  0.59797  0.50013  1.0000
  N   N1        1.0  0.21978  0.38738  0.50038  1.0000
  N   N2        1.0  0.22923  0.60361  0.49997  1.0000
  N   N3        1.0  0.60629  0.29533  0.50042  1.0000
  N   N4        1.0  0.61593  0.51309  0.50021  1.0000
  Fe  Fe1       1.0  0.32795  0.48349  0.50025  1.0000
  Cr  Cr1       1.0  0.49946  0.41950  0.50099  1.0000
