data_image0
_chemical_formula_structural       C52N4Fe2
_chemical_formula_sum              "C52 N4 Fe2"
_cell_length_a       12.672
_cell_length_b       12.5509
_cell_length_c       19.9748
_cell_angle_alpha    89.9968
_cell_angle_beta     90.0465
_cell_angle_gamma    89.8012

_space_group_name_H-M_alt    "P 1"
_space_group_IT_number       1

loop_
  _space_group_symop_operation_xyz
  'x, y, z'

loop_
  _atom_site_type_symbol
  _atom_site_label
  _atom_site_symmetry_multiplicity
  _atom_site_fract_x
  _atom_site_fract_y
  _atom_site_fract_z
  _atom_site_occupancy
  C   C1        1.0  0.22189  0.99818  0.50035  1.0000
  C   C2        1.0  0.05430  0.09872  0.50010  1.0000
  C   C3        1.0  0.11025  0.99886  0.50027  1.0000
  C   C4        1.0  0.27719  0.09684  0.50032  1.0000
  C   C5        1.0  0.22126  0.19510  0.50023  1.0000
  C   C6        1.0  0.05517  0.29831  0.49994  1.0000
  C   C7        1.0  0.10946  0.19757  0.50007  1.0000
  C   C8        1.0  0.27753  0.29251  0.50035  1.0000
  C   C9        1.0  0.06205  0.49815  0.49973  1.0000
  C   C10       1.0  0.11531  0.39550  0.49989  1.0000
  C   C11       1.0  0.05945  0.69813  0.49992  1.0000
  C   C12       1.0  0.11938  0.59928  0.49963  1.0000
  C   C13       1.0  0.27812  0.70210  0.49972  1.0000
  C   C14       1.0  0.22298  0.80038  0.50010  1.0000
  C   C15       1.0  0.05598  0.89906  0.50019  1.0000
  C   C16       1.0  0.11162  0.79936  0.50011  1.0000
  C   C17       1.0  0.27784  0.89971  0.50026  1.0000
  C   C18       1.0  0.55583  0.99945  0.49977  1.0000
  C   C19       1.0  0.38872  0.09815  0.50025  1.0000
  C   C20       1.0  0.44435  0.99906  0.50002  1.0000
  C   C21       1.0  0.61068  0.09878  0.49992  1.0000
  C   C22       1.0  0.55554  0.19705  0.50042  1.0000
  C   C23       1.0  0.44268  0.19820  0.50042  1.0000
  C   C24       1.0  0.55612  0.60665  0.49994  1.0000
  C   C25       1.0  0.39098  0.70096  0.49980  1.0000
  C   C26       1.0  0.61240  0.70407  0.49993  1.0000
  C   C27       1.0  0.55647  0.80232  0.49979  1.0000
  C   C28       1.0  0.38931  0.90010  0.50006  1.0000
  C   C29       1.0  0.44494  0.80101  0.49989  1.0000
  C   C30       1.0  0.61177  0.90098  0.49966  1.0000
  C   C31       1.0  0.88898  0.99971  0.49985  1.0000
  C   C32       1.0  0.72205  0.09980  0.49984  1.0000
  C   C33       1.0  0.77767  0.00010  0.49969  1.0000
  C   C34       1.0  0.94247  0.10011  0.49992  1.0000
  C   C35       1.0  0.88682  0.20081  0.49994  1.0000
  C   C36       1.0  0.71429  0.29988  0.50047  1.0000
  C   C37       1.0  0.77422  0.20103  0.50006  1.0000
  C   C38       1.0  0.94252  0.30031  0.49998  1.0000
  C   C39       1.0  0.88627  0.40038  0.50012  1.0000
  C   C40       1.0  0.71835  0.50366  0.50031  1.0000
  C   C41       1.0  0.77161  0.40101  0.50040  1.0000
  C   C42       1.0  0.94739  0.49878  0.49995  1.0000
  C   C43       1.0  0.89114  0.59885  0.50005  1.0000
  C   C44       1.0  0.72420  0.70158  0.49999  1.0000
  C   C45       1.0  0.77849  0.60085  0.50015  1.0000
  C   C46       1.0  0.94684  0.69835  0.50001  1.0000
  C   C47       1.0  0.89120  0.79905  0.49996  1.0000
  C   C48       1.0  0.72342  0.90030  0.49966  1.0000
  C   C49       1.0  0.77936  0.80043  0.49984  1.0000
  C   C50       1.0  0.94468  0.89945  0.50000  1.0000
  C   C51       1.0  0.38976  0.29870  0.50064  1.0000
  C   C52       1.0  0.44390  0.60046  0.49969  1.0000
  N   N1        1.0  0.22300  0.38892  0.50017  1.0000
  N   N2        1.0  0.22919  0.60412  0.49933  1.0000
  N   N3        1.0  0.60448  0.29503  0.50085  1.0000
  N   N4        1.0  0.61066  0.51025  0.50017  1.0000
  Fe  Fe1       1.0  0.33477  0.48496  0.49947  1.0000
  Fe  Fe2       1.0  0.49894  0.41417  0.50091  1.0000
