data_image0
_chemical_formula_structural       C52N4FeMn
_chemical_formula_sum              "C52 N4 Fe1 Mn1"
_cell_length_a       12.6697
_cell_length_b       12.5405
_cell_length_c       19.9954
_cell_angle_alpha    90.0416
_cell_angle_beta     90.0937
_cell_angle_gamma    89.6718

_space_group_name_H-M_alt    "P 1"
_space_group_IT_number       1

loop_
  _space_group_symop_operation_xyz
  'x, y, z'

loop_
  _atom_site_type_symbol
  _atom_site_label
  _atom_site_symmetry_multiplicity
  _atom_site_fract_x
  _atom_site_fract_y
  _atom_site_fract_z
  _atom_site_occupancy
  C   C1        1.0  0.22207  0.99795  0.50018  1.0000
  C   C2        1.0  0.05406  0.09839  0.50055  1.0000
  C   C3        1.0  0.11042  0.99857  0.50026  1.0000
  C   C4        1.0  0.27704  0.09701  0.50051  1.0000
  C   C5        1.0  0.22028  0.19492  0.50125  1.0000
  C   C6        1.0  0.05438  0.29802  0.50121  1.0000
  C   C7        1.0  0.10874  0.19714  0.50109  1.0000
  C   C8        1.0  0.27516  0.29302  0.50239  1.0000
  C   C9        1.0  0.06169  0.49817  0.50022  1.0000
  C   C10       1.0  0.11344  0.39524  0.50142  1.0000
  C   C11       1.0  0.06029  0.69774  0.49960  1.0000
  C   C12       1.0  0.11991  0.59854  0.49949  1.0000
  C   C13       1.0  0.27882  0.70065  0.49913  1.0000
  C   C14       1.0  0.22365  0.79952  0.49969  1.0000
  C   C15       1.0  0.05633  0.89875  0.49997  1.0000
  C   C16       1.0  0.11226  0.79895  0.49974  1.0000
  C   C17       1.0  0.27813  0.89915  0.49981  1.0000
  C   C18       1.0  0.55563  0.00005  0.49955  1.0000
  C   C19       1.0  0.38867  0.09915  0.50025  1.0000
  C   C20       1.0  0.44426  0.99948  0.49973  1.0000
  C   C21       1.0  0.61019  0.09947  0.50010  1.0000
  C   C22       1.0  0.55529  0.19834  0.50111  1.0000
  C   C23       1.0  0.44221  0.20013  0.50087  1.0000
  C   C24       1.0  0.55694  0.60676  0.49777  1.0000
  C   C25       1.0  0.39143  0.69924  0.49877  1.0000
  C   C26       1.0  0.61267  0.70443  0.49853  1.0000
  C   C27       1.0  0.55651  0.80255  0.49888  1.0000
  C   C28       1.0  0.38952  0.89979  0.49952  1.0000
  C   C29       1.0  0.44503  0.80014  0.49905  1.0000
  C   C30       1.0  0.61166  0.90126  0.49921  1.0000
  C   C31       1.0  0.88886  0.99964  0.50001  1.0000
  C   C32       1.0  0.72169  0.10013  0.50029  1.0000
  C   C33       1.0  0.77743  0.00025  0.49987  1.0000
  C   C34       1.0  0.94226  0.09981  0.50034  1.0000
  C   C35       1.0  0.88666  0.20062  0.50054  1.0000
  C   C36       1.0  0.71508  0.30040  0.50135  1.0000
  C   C37       1.0  0.77432  0.20103  0.50072  1.0000
  C   C38       1.0  0.94219  0.30009  0.50079  1.0000
  C   C39       1.0  0.88679  0.40053  0.50052  1.0000
  C   C40       1.0  0.72037  0.50429  0.49927  1.0000
  C   C41       1.0  0.77248  0.40124  0.50055  1.0000
  C   C42       1.0  0.94745  0.49887  0.50004  1.0000
  C   C43       1.0  0.89186  0.59932  0.49957  1.0000
  C   C44       1.0  0.72449  0.70193  0.49886  1.0000
  C   C45       1.0  0.77965  0.60149  0.49914  1.0000
  C   C46       1.0  0.94759  0.69842  0.49964  1.0000
  C   C47       1.0  0.89154  0.79909  0.49961  1.0000
  C   C48       1.0  0.72329  0.90051  0.49937  1.0000
  C   C49       1.0  0.77960  0.80061  0.49924  1.0000
  C   C50       1.0  0.94491  0.89936  0.49987  1.0000
  C   C51       1.0  0.38663  0.30034  0.50245  1.0000
  C   C52       1.0  0.44434  0.59783  0.49779  1.0000
  N   N1        1.0  0.22064  0.38901  0.50269  1.0000
  N   N2        1.0  0.23033  0.60227  0.49877  1.0000
  N   N3        1.0  0.60571  0.29583  0.50258  1.0000
  N   N4        1.0  0.61363  0.51188  0.49795  1.0000
  Fe  Fe1       1.0  0.33199  0.48028  0.49759  1.0000
  Mn  Mn1       1.0  0.49780  0.41795  0.50323  1.0000
