data_image0
_chemical_formula_structural       C52N4FeSc
_chemical_formula_sum              "C52 N4 Fe1 Sc1"
_cell_length_a       12.7166
_cell_length_b       12.5153
_cell_length_c       19.9619
_cell_angle_alpha    90.0015
_cell_angle_beta     90.0086
_cell_angle_gamma    89.5837

_space_group_name_H-M_alt    "P 1"
_space_group_IT_number       1

loop_
  _space_group_symop_operation_xyz
  'x, y, z'

loop_
  _atom_site_type_symbol
  _atom_site_label
  _atom_site_symmetry_multiplicity
  _atom_site_fract_x
  _atom_site_fract_y
  _atom_site_fract_z
  _atom_site_occupancy
  C   C1        1.0  0.22228  0.99821  0.50033  1.0000
  C   C2        1.0  0.05404  0.09791  0.49976  1.0000
  C   C3        1.0  0.11073  0.99841  0.50000  1.0000
  C   C4        1.0  0.27742  0.09743  0.50023  1.0000
  C   C5        1.0  0.21955  0.19459  0.49951  1.0000
  C   C6        1.0  0.05410  0.29780  0.49952  1.0000
  C   C7        1.0  0.10833  0.19671  0.49951  1.0000
  C   C8        1.0  0.27363  0.29267  0.50020  1.0000
  C   C9        1.0  0.06162  0.49793  0.49777  1.0000
  C   C10       1.0  0.11286  0.39521  0.49881  1.0000
  C   C11       1.0  0.06024  0.69764  0.49843  1.0000
  C   C12       1.0  0.12007  0.59833  0.49763  1.0000
  C   C13       1.0  0.27898  0.70120  0.49878  1.0000
  C   C14       1.0  0.22372  0.79978  0.49986  1.0000
  C   C15       1.0  0.05632  0.89852  0.49955  1.0000
  C   C16       1.0  0.11236  0.79884  0.49931  1.0000
  C   C17       1.0  0.27842  0.89947  0.50038  1.0000
  C   C18       1.0  0.55562  0.00029  0.50014  1.0000
  C   C19       1.0  0.38905  0.10094  0.50113  1.0000
  C   C20       1.0  0.44439  0.00072  0.50067  1.0000
  C   C21       1.0  0.61017  0.09978  0.50178  1.0000
  C   C22       1.0  0.55625  0.19966  0.50505  1.0000
  C   C23       1.0  0.44259  0.20346  0.50208  1.0000
  C   C24       1.0  0.55619  0.60441  0.49455  1.0000
  C   C25       1.0  0.39107  0.70021  0.49870  1.0000
  C   C26       1.0  0.61214  0.70318  0.49614  1.0000
  C   C27       1.0  0.55638  0.80187  0.49782  1.0000
  C   C28       1.0  0.38951  0.90067  0.50003  1.0000
  C   C29       1.0  0.44482  0.80062  0.49891  1.0000
  C   C30       1.0  0.61151  0.90090  0.49862  1.0000
  C   C31       1.0  0.88870  0.99919  0.49948  1.0000
  C   C32       1.0  0.72177  0.09973  0.50135  1.0000
  C   C33       1.0  0.77739  0.99969  0.49975  1.0000
  C   C34       1.0  0.94247  0.09912  0.49967  1.0000
  C   C35       1.0  0.88721  0.19984  0.49991  1.0000
  C   C36       1.0  0.71692  0.29937  0.50433  1.0000
  C   C37       1.0  0.77542  0.20001  0.50138  1.0000
  C   C38       1.0  0.94232  0.29975  0.49990  1.0000
  C   C39       1.0  0.88729  0.40034  0.49970  1.0000
  C   C40       1.0  0.72042  0.50326  0.49666  1.0000
  C   C41       1.0  0.77316  0.40097  0.50089  1.0000
  C   C42       1.0  0.94743  0.49857  0.49808  1.0000
  C   C43       1.0  0.89168  0.59881  0.49725  1.0000
  C   C44       1.0  0.72400  0.70115  0.49589  1.0000
  C   C45       1.0  0.77952  0.60063  0.49593  1.0000
  C   C46       1.0  0.94761  0.69807  0.49788  1.0000
  C   C47       1.0  0.89137  0.79863  0.49804  1.0000
  C   C48       1.0  0.72306  0.89992  0.49846  1.0000
  C   C49       1.0  0.77927  0.79993  0.49728  1.0000
  C   C50       1.0  0.94492  0.89884  0.49903  1.0000
  C   C51       1.0  0.38419  0.30313  0.50173  1.0000
  C   C52       1.0  0.44328  0.59755  0.49659  1.0000
  N   N1        1.0  0.21978  0.38851  0.49927  1.0000
  N   N2        1.0  0.22999  0.60242  0.49685  1.0000
  N   N3        1.0  0.60904  0.29547  0.51078  1.0000
  N   N4        1.0  0.61284  0.50900  0.49424  1.0000
  Fe  Fe1       1.0  0.33167  0.48147  0.49289  1.0000
  Sc  Sc1       1.0  0.49920  0.42489  0.54405  1.0000
