data_image0
_chemical_formula_structural       C52N4FeTi
_chemical_formula_sum              "C52 N4 Fe1 Ti1"
_cell_length_a       12.6977
_cell_length_b       12.5247
_cell_length_c       19.9768
_cell_angle_alpha    90.016
_cell_angle_beta     90.1609
_cell_angle_gamma    89.5369

_space_group_name_H-M_alt    "P 1"
_space_group_IT_number       1

loop_
  _space_group_symop_operation_xyz
  'x, y, z'

loop_
  _atom_site_type_symbol
  _atom_site_label
  _atom_site_symmetry_multiplicity
  _atom_site_fract_x
  _atom_site_fract_y
  _atom_site_fract_z
  _atom_site_occupancy
  C   C1        1.0  0.22153  0.99755  0.49693  1.0000
  C   C2        1.0  0.05370  0.09821  0.49921  1.0000
  C   C3        1.0  0.11024  0.99819  0.49799  1.0000
  C   C4        1.0  0.27628  0.09655  0.49698  1.0000
  C   C5        1.0  0.21953  0.19446  0.49908  1.0000
  C   C6        1.0  0.05482  0.29841  0.50228  1.0000
  C   C7        1.0  0.10830  0.19703  0.50020  1.0000
  C   C8        1.0  0.27457  0.29207  0.50279  1.0000
  C   C9        1.0  0.06297  0.49826  0.50192  1.0000
  C   C10       1.0  0.11527  0.39589  0.50345  1.0000
  C   C11       1.0  0.06093  0.69721  0.49893  1.0000
  C   C12       1.0  0.12161  0.59791  0.50011  1.0000
  C   C13       1.0  0.28077  0.69935  0.49696  1.0000
  C   C14       1.0  0.22478  0.79874  0.49727  1.0000
  C   C15       1.0  0.05652  0.89809  0.49812  1.0000
  C   C16       1.0  0.11309  0.79832  0.49811  1.0000
  C   C17       1.0  0.27832  0.89864  0.49642  1.0000
  C   C18       1.0  0.55559  0.00009  0.49630  1.0000
  C   C19       1.0  0.38767  0.09894  0.49679  1.0000
  C   C20       1.0  0.44424  0.99950  0.49608  1.0000
  C   C21       1.0  0.60976  0.09958  0.49920  1.0000
  C   C22       1.0  0.55389  0.19854  0.50320  1.0000
  C   C23       1.0  0.44100  0.19964  0.49924  1.0000
  C   C24       1.0  0.55538  0.60639  0.49549  1.0000
  C   C25       1.0  0.39252  0.70022  0.49491  1.0000
  C   C26       1.0  0.61213  0.70392  0.49458  1.0000
  C   C27       1.0  0.55685  0.80259  0.49398  1.0000
  C   C28       1.0  0.38942  0.89985  0.49556  1.0000
  C   C29       1.0  0.44538  0.80030  0.49462  1.0000
  C   C30       1.0  0.61178  0.90109  0.49527  1.0000
  C   C31       1.0  0.88869  0.99942  0.49880  1.0000
  C   C32       1.0  0.72135  0.10085  0.50014  1.0000
  C   C33       1.0  0.77748  0.00038  0.49839  1.0000
  C   C34       1.0  0.94214  0.09980  0.49975  1.0000
  C   C35       1.0  0.88669  0.20073  0.50131  1.0000
  C   C36       1.0  0.71556  0.30203  0.50682  1.0000
  C   C37       1.0  0.77436  0.20181  0.50236  1.0000
  C   C38       1.0  0.94261  0.30060  0.50255  1.0000
  C   C39       1.0  0.88723  0.40181  0.50326  1.0000
  C   C40       1.0  0.71872  0.50431  0.50231  1.0000
  C   C41       1.0  0.77309  0.40301  0.50507  1.0000
  C   C42       1.0  0.94825  0.49935  0.50163  1.0000
  C   C43       1.0  0.89170  0.59889  0.49973  1.0000
  C   C44       1.0  0.72407  0.70138  0.49667  1.0000
  C   C45       1.0  0.77867  0.60065  0.49914  1.0000
  C   C46       1.0  0.94808  0.69797  0.49873  1.0000
  C   C47       1.0  0.89173  0.79866  0.49797  1.0000
  C   C48       1.0  0.72349  0.90039  0.49657  1.0000
  C   C49       1.0  0.77954  0.80015  0.49686  1.0000
  C   C50       1.0  0.94502  0.89882  0.49825  1.0000
  C   C51       1.0  0.38540  0.29990  0.50359  1.0000
  C   C52       1.0  0.60368  0.29864  0.51158  1.0000
  N   N1        1.0  0.22281  0.38899  0.50524  1.0000
  N   N2        1.0  0.23175  0.60074  0.49878  1.0000
  N   N3        1.0  0.60827  0.51099  0.50283  1.0000
  N   N4        1.0  0.44601  0.60095  0.49329  1.0000
  Fe  Fe1       1.0  0.33847  0.47919  0.49605  1.0000
  Ti  Ti1       1.0  0.49258  0.41972  0.54285  1.0000
