data_image0
_chemical_formula_structural       C52N4FeV
_chemical_formula_sum              "C52 N4 Fe1 V1"
_cell_length_a       12.6884
_cell_length_b       12.5668
_cell_length_c       19.9242
_cell_angle_alpha    89.9905
_cell_angle_beta     90.0502
_cell_angle_gamma    89.5962

_space_group_name_H-M_alt    "P 1"
_space_group_IT_number       1

loop_
  _space_group_symop_operation_xyz
  'x, y, z'

loop_
  _atom_site_type_symbol
  _atom_site_label
  _atom_site_symmetry_multiplicity
  _atom_site_fract_x
  _atom_site_fract_y
  _atom_site_fract_z
  _atom_site_occupancy
  C   C1        1.0  0.22132  0.99839  0.49822  1.0000
  C   C2        1.0  0.05423  0.09867  0.49867  1.0000
  C   C3        1.0  0.11016  0.99875  0.49819  1.0000
  C   C4        1.0  0.27643  0.09691  0.49949  1.0000
  C   C5        1.0  0.22037  0.19508  0.50056  1.0000
  C   C6        1.0  0.05495  0.29880  0.50020  1.0000
  C   C7        1.0  0.10895  0.19760  0.49968  1.0000
  C   C8        1.0  0.27627  0.29256  0.50426  1.0000
  C   C9        1.0  0.06266  0.49870  0.49846  1.0000
  C   C10       1.0  0.11539  0.39629  0.50089  1.0000
  C   C11       1.0  0.05945  0.69833  0.49726  1.0000
  C   C12       1.0  0.11964  0.59942  0.49685  1.0000
  C   C13       1.0  0.27944  0.70221  0.49616  1.0000
  C   C14       1.0  0.22377  0.80068  0.49710  1.0000
  C   C15       1.0  0.05611  0.89873  0.49778  1.0000
  C   C16       1.0  0.11209  0.79939  0.49730  1.0000
  C   C17       1.0  0.27781  0.89985  0.49753  1.0000
  C   C18       1.0  0.55576  0.99899  0.49756  1.0000
  C   C19       1.0  0.38794  0.09816  0.50030  1.0000
  C   C20       1.0  0.44437  0.99913  0.49813  1.0000
  C   C21       1.0  0.61045  0.09791  0.49976  1.0000
  C   C22       1.0  0.55495  0.19586  0.50500  1.0000
  C   C23       1.0  0.44172  0.19781  0.50417  1.0000
  C   C24       1.0  0.55419  0.60581  0.49834  1.0000
  C   C25       1.0  0.39138  0.70227  0.49666  1.0000
  C   C26       1.0  0.61150  0.70342  0.49634  1.0000
  C   C27       1.0  0.55648  0.80218  0.49594  1.0000
  C   C28       1.0  0.38901  0.90040  0.49707  1.0000
  C   C29       1.0  0.44476  0.80131  0.49641  1.0000
  C   C30       1.0  0.61169  0.90023  0.49634  1.0000
  C   C31       1.0  0.88896  0.99934  0.49801  1.0000
  C   C32       1.0  0.72216  0.09984  0.49950  1.0000
  C   C33       1.0  0.77781  0.99981  0.49787  1.0000
  C   C34       1.0  0.94275  0.09979  0.49853  1.0000
  C   C35       1.0  0.88757  0.20044  0.49945  1.0000
  C   C36       1.0  0.71741  0.30045  0.50564  1.0000
  C   C37       1.0  0.77554  0.20070  0.50094  1.0000
  C   C38       1.0  0.94280  0.30074  0.50004  1.0000
  C   C39       1.0  0.88710  0.40182  0.50059  1.0000
  C   C40       1.0  0.71812  0.50407  0.50148  1.0000
  C   C41       1.0  0.77307  0.40253  0.50327  1.0000
  C   C42       1.0  0.94771  0.49951  0.49877  1.0000
  C   C43       1.0  0.89118  0.59872  0.49788  1.0000
  C   C44       1.0  0.72338  0.70088  0.49693  1.0000
  C   C45       1.0  0.77800  0.60020  0.49823  1.0000
  C   C46       1.0  0.94702  0.69821  0.49744  1.0000
  C   C47       1.0  0.89108  0.79874  0.49737  1.0000
  C   C48       1.0  0.72346  0.89975  0.49677  1.0000
  C   C49       1.0  0.77897  0.79984  0.49678  1.0000
  C   C50       1.0  0.94465  0.89885  0.49774  1.0000
  C   C51       1.0  0.38720  0.29808  0.50798  1.0000
  C   C52       1.0  0.60657  0.29481  0.51244  1.0000
  N   N1        1.0  0.22288  0.38918  0.50417  1.0000
  N   N2        1.0  0.22886  0.60437  0.49473  1.0000
  N   N3        1.0  0.60740  0.51092  0.50374  1.0000
  N   N4        1.0  0.44456  0.60360  0.49755  1.0000
  Fe  Fe1       1.0  0.33276  0.48892  0.49586  1.0000
  V   V1        1.0  0.50413  0.40769  0.54225  1.0000
