data_image0
_chemical_formula_structural       C52N5CuFe
_chemical_formula_sum              "C52 N5 Cu1 Fe1"
_cell_length_a       12.81
_cell_length_b       12.4
_cell_length_c       20
_cell_angle_alpha    90
_cell_angle_beta     90
_cell_angle_gamma    90

_space_group_name_H-M_alt    "P 1"
_space_group_IT_number       1

loop_
  _space_group_symop_operation_xyz
  'x, y, z'

loop_
  _atom_site_type_symbol
  _atom_site_label
  _atom_site_symmetry_multiplicity
  _atom_site_fract_x
  _atom_site_fract_y
  _atom_site_fract_z
  _atom_site_occupancy
  C   C1        1.0  0.22266  0.00253  0.49942  1.0000
  C   C2        1.0  0.05755  0.10223  0.49975  1.0000
  C   C3        1.0  0.11143  0.00152  0.49938  1.0000
  C   C4        1.0  0.27841  0.10375  0.50039  1.0000
  C   C5        1.0  0.22526  0.20576  0.50177  1.0000
  C   C6        1.0  0.05688  0.30267  0.49968  1.0000
  C   C7        1.0  0.11320  0.20330  0.50052  1.0000
  C   C8        1.0  0.28172  0.30729  0.50430  1.0000
  C   C9        1.0  0.22258  0.40793  0.50624  1.0000
  C   C10       1.0  0.05410  0.50322  0.50002  1.0000
  C   C11       1.0  0.11090  0.40374  0.50106  1.0000
  C   C12       1.0  0.22220  0.60161  0.50391  1.0000
  C   C13       1.0  0.05369  0.70165  0.49793  1.0000
  C   C14       1.0  0.11026  0.60304  0.49982  1.0000
  C   C15       1.0  0.28242  0.70123  0.50030  1.0000
  C   C16       1.0  0.22378  0.80030  0.49884  1.0000
  C   C17       1.0  0.05591  0.90093  0.49870  1.0000
  C   C18       1.0  0.11123  0.80051  0.49845  1.0000
  C   C19       1.0  0.27733  0.90245  0.49898  1.0000
  C   C20       1.0  0.55510  0.00129  0.49969  1.0000
  C   C21       1.0  0.38916  0.10258  0.50010  1.0000
  C   C22       1.0  0.44430  0.00236  0.49967  1.0000
  C   C23       1.0  0.61223  0.09927  0.49934  1.0000
  C   C24       1.0  0.55709  0.19804  0.49937  1.0000
  C   C25       1.0  0.39464  0.30456  0.50282  1.0000
  C   C26       1.0  0.44602  0.20174  0.50037  1.0000
  C   C27       1.0  0.61495  0.29495  0.49864  1.0000
  C   C28       1.0  0.56013  0.39193  0.50044  1.0000
  C   C29       1.0  0.55407  0.80382  0.49863  1.0000
  C   C30       1.0  0.38845  0.90257  0.49940  1.0000
  C   C31       1.0  0.44258  0.80283  0.49912  1.0000
  C   C32       1.0  0.61002  0.90191  0.49942  1.0000
  C   C33       1.0  0.88995  0.00054  0.49908  1.0000
  C   C34       1.0  0.72349  0.09970  0.49910  1.0000
  C   C35       1.0  0.77836  0.99989  0.49917  1.0000
  C   C36       1.0  0.94618  0.10077  0.49929  1.0000
  C   C37       1.0  0.89108  0.20059  0.49889  1.0000
  C   C38       1.0  0.72520  0.29790  0.49818  1.0000
  C   C39       1.0  0.78011  0.19899  0.49865  1.0000
  C   C40       1.0  0.94531  0.30148  0.49875  1.0000
  C   C41       1.0  0.88874  0.40122  0.49838  1.0000
  C   C42       1.0  0.71766  0.49694  0.49836  1.0000
  C   C43       1.0  0.77752  0.39928  0.49820  1.0000
  C   C44       1.0  0.94205  0.50233  0.49850  1.0000
  C   C45       1.0  0.88355  0.60115  0.49766  1.0000
  C   C46       1.0  0.71389  0.70097  0.49765  1.0000
  C   C47       1.0  0.76996  0.59995  0.49759  1.0000
  C   C48       1.0  0.94122  0.70039  0.49750  1.0000
  C   C49       1.0  0.88621  0.80011  0.49804  1.0000
  C   C50       1.0  0.72136  0.90101  0.49904  1.0000
  C   C51       1.0  0.77393  0.79966  0.49831  1.0000
  C   C52       1.0  0.94385  0.90001  0.49863  1.0000
  N   N1        1.0  0.27281  0.50512  0.51262  1.0000
  N   N2        1.0  0.45456  0.39804  0.50460  1.0000
  N   N3        1.0  0.61030  0.49004  0.49958  1.0000
  N   N4        1.0  0.39270  0.70263  0.49953  1.0000
  N   N5        1.0  0.60468  0.70516  0.49701  1.0000
  Cu  Cu1       1.0  0.39513  0.51021  0.57551  1.0000
  Fe  Fe1       1.0  0.50528  0.59395  0.49754  1.0000
