data_image0
_chemical_formula_structural       C54N2CoFe
_chemical_formula_sum              "C54 N2 Co1 Fe1"
_cell_length_a       13.0768
_cell_length_b       12.3294
_cell_length_c       19.7042
_cell_angle_alpha    89.9968
_cell_angle_beta     89.9751
_cell_angle_gamma    90.0522

_space_group_name_H-M_alt    "P 1"
_space_group_IT_number       1

loop_
  _space_group_symop_operation_xyz
  'x, y, z'

loop_
  _atom_site_type_symbol
  _atom_site_label
  _atom_site_symmetry_multiplicity
  _atom_site_fract_x
  _atom_site_fract_y
  _atom_site_fract_z
  _atom_site_occupancy
  C   C1        1.0  0.22532  0.00029  0.49982  1.0000
  C   C2        1.0  0.05661  0.09958  0.49993  1.0000
  C   C3        1.0  0.11307  0.00019  0.49992  1.0000
  C   C4        1.0  0.28024  0.10206  0.49967  1.0000
  C   C5        1.0  0.22239  0.20267  0.49976  1.0000
  C   C6        1.0  0.05174  0.29830  0.50005  1.0000
  C   C7        1.0  0.11109  0.20028  0.49990  1.0000
  C   C8        1.0  0.20996  0.39895  0.49998  1.0000
  C   C9        1.0  0.04840  0.50000  0.50007  1.0000
  C   C10       1.0  0.10231  0.39941  0.50007  1.0000
  C   C11       1.0  0.26265  0.50014  0.49945  1.0000
  C   C12       1.0  0.20967  0.60135  0.49975  1.0000
  C   C13       1.0  0.05127  0.70162  0.50006  1.0000
  C   C14       1.0  0.10218  0.60074  0.49994  1.0000
  C   C15       1.0  0.22143  0.79791  0.49984  1.0000
  C   C16       1.0  0.05623  0.90077  0.50003  1.0000
  C   C17       1.0  0.11038  0.80011  0.50000  1.0000
  C   C18       1.0  0.27991  0.89854  0.49981  1.0000
  C   C19       1.0  0.55715  0.00046  0.49996  1.0000
  C   C20       1.0  0.39233  0.10356  0.49966  1.0000
  C   C21       1.0  0.44643  0.00073  0.49987  1.0000
  C   C22       1.0  0.61388  0.09983  0.50000  1.0000
  C   C23       1.0  0.55905  0.19981  0.49988  1.0000
  C   C24       1.0  0.61592  0.30186  0.49983  1.0000
  C   C25       1.0  0.61219  0.49703  0.49950  1.0000
  C   C26       1.0  0.61556  0.69807  0.49974  1.0000
  C   C27       1.0  0.55940  0.80092  0.49976  1.0000
  C   C28       1.0  0.39207  0.89768  0.49980  1.0000
  C   C29       1.0  0.61385  0.90099  0.49995  1.0000
  C   C30       1.0  0.89030  0.00002  0.50008  1.0000
  C   C31       1.0  0.72390  0.09910  0.50004  1.0000
  C   C32       1.0  0.77974  0.00001  0.50007  1.0000
  C   C33       1.0  0.94584  0.09944  0.50003  1.0000
  C   C34       1.0  0.88865  0.19853  0.50007  1.0000
  C   C35       1.0  0.72495  0.29940  0.50013  1.0000
  C   C36       1.0  0.77917  0.19878  0.50010  1.0000
  C   C37       1.0  0.94236  0.29871  0.50011  1.0000
  C   C38       1.0  0.88765  0.39898  0.50014  1.0000
  C   C39       1.0  0.72282  0.49879  0.49993  1.0000
  C   C40       1.0  0.77864  0.39943  0.50007  1.0000
  C   C41       1.0  0.94069  0.49994  0.50017  1.0000
  C   C42       1.0  0.88681  0.60046  0.50016  1.0000
  C   C43       1.0  0.72446  0.70019  0.49990  1.0000
  C   C44       1.0  0.77769  0.59966  0.50001  1.0000
  C   C45       1.0  0.94189  0.70099  0.50017  1.0000
  C   C46       1.0  0.88852  0.80129  0.50015  1.0000
  C   C47       1.0  0.72388  0.90077  0.50005  1.0000
  C   C48       1.0  0.77907  0.80087  0.50006  1.0000
  C   C49       1.0  0.94564  0.90065  0.50012  1.0000
  C   C50       1.0  0.27224  0.30586  0.49979  1.0000
  C   C51       1.0  0.27120  0.69513  0.49969  1.0000
  C   C52       1.0  0.45038  0.20313  0.49943  1.0000
  C   C53       1.0  0.55911  0.59913  0.49961  1.0000
  C   C54       1.0  0.45037  0.79906  0.49984  1.0000
  N   N1        1.0  0.56153  0.39632  0.49914  1.0000
  N   N2        1.0  0.36388  0.49910  0.49875  1.0000
  Co  Co1       1.0  0.41145  0.35227  0.49623  1.0000
  Fe  Fe1       1.0  0.41490  0.64503  0.49992  1.0000
