data_image0
_chemical_formula_structural       C54N2FeCr
_chemical_formula_sum              "C54 N2 Fe1 Cr1"
_cell_length_a       12.7968
_cell_length_b       12.5429
_cell_length_c       19.7924
_cell_angle_alpha    90.0149
_cell_angle_beta     89.9857
_cell_angle_gamma    90.0303

_space_group_name_H-M_alt    "P 1"
_space_group_IT_number       1

loop_
  _space_group_symop_operation_xyz
  'x, y, z'

loop_
  _atom_site_type_symbol
  _atom_site_label
  _atom_site_symmetry_multiplicity
  _atom_site_fract_x
  _atom_site_fract_y
  _atom_site_fract_z
  _atom_site_occupancy
  C   C1        1.0  0.21987  0.00023  0.50002  1.0000
  C   C2        1.0  0.05464  0.10027  0.50002  1.0000
  C   C3        1.0  0.10919  0.99994  0.50001  1.0000
  C   C4        1.0  0.27590  0.09914  0.50001  1.0000
  C   C5        1.0  0.22227  0.19935  0.49999  1.0000
  C   C6        1.0  0.05531  0.29996  0.50002  1.0000
  C   C7        1.0  0.11062  0.19979  0.50001  1.0000
  C   C8        1.0  0.28087  0.29817  0.49990  1.0000
  C   C9        1.0  0.22392  0.39893  0.49991  1.0000
  C   C10       1.0  0.05654  0.50019  0.50002  1.0000
  C   C11       1.0  0.11204  0.39991  0.50000  1.0000
  C   C12       1.0  0.27960  0.49932  0.49984  1.0000
  C   C13       1.0  0.22547  0.60117  0.49997  1.0000
  C   C14       1.0  0.05564  0.69991  0.50003  1.0000
  C   C15       1.0  0.11331  0.60063  0.50002  1.0000
  C   C16       1.0  0.28179  0.70341  0.50000  1.0000
  C   C17       1.0  0.22221  0.80103  0.50001  1.0000
  C   C18       1.0  0.05482  0.89948  0.50000  1.0000
  C   C19       1.0  0.11051  0.79991  0.50001  1.0000
  C   C20       1.0  0.27553  0.90125  0.50002  1.0000
  C   C21       1.0  0.55497  0.99969  0.50003  1.0000
  C   C22       1.0  0.38723  0.09691  0.50000  1.0000
  C   C23       1.0  0.44367  0.99960  0.50003  1.0000
  C   C24       1.0  0.61137  0.09751  0.50000  1.0000
  C   C25       1.0  0.55580  0.19481  0.49991  1.0000
  C   C26       1.0  0.44293  0.19381  0.49991  1.0000
  C   C27       1.0  0.55491  0.80363  0.50005  1.0000
  C   C28       1.0  0.38672  0.90233  0.50004  1.0000
  C   C29       1.0  0.44099  0.80496  0.50004  1.0000
  C   C30       1.0  0.61044  0.90160  0.50004  1.0000
  C   C31       1.0  0.88877  0.99976  0.50001  1.0000
  C   C32       1.0  0.72258  0.09915  0.50001  1.0000
  C   C33       1.0  0.77800  0.99968  0.50002  1.0000
  C   C34       1.0  0.94328  0.10031  0.50002  1.0000
  C   C35       1.0  0.88780  0.20002  0.50002  1.0000
  C   C36       1.0  0.71760  0.29882  0.49990  1.0000
  C   C37       1.0  0.77602  0.19982  0.49999  1.0000
  C   C38       1.0  0.94382  0.29997  0.50003  1.0000
  C   C39       1.0  0.88775  0.39988  0.50000  1.0000
  C   C40       1.0  0.72093  0.49952  0.49986  1.0000
  C   C41       1.0  0.77569  0.39959  0.49992  1.0000
  C   C42       1.0  0.94403  0.50003  0.50002  1.0000
  C   C43       1.0  0.88744  0.60000  0.50002  1.0000
  C   C44       1.0  0.71817  0.70135  0.50001  1.0000
  C   C45       1.0  0.77589  0.60021  0.49997  1.0000
  C   C46       1.0  0.94401  0.69987  0.50003  1.0000
  C   C47       1.0  0.88825  0.79972  0.50001  1.0000
  C   C48       1.0  0.72205  0.90018  0.50003  1.0000
  C   C49       1.0  0.77631  0.79996  0.50002  1.0000
  C   C50       1.0  0.94362  0.89943  0.50000  1.0000
  C   C51       1.0  0.39167  0.29327  0.49982  1.0000
  C   C52       1.0  0.60643  0.29564  0.49981  1.0000
  C   C53       1.0  0.61073  0.50174  0.49962  1.0000
  C   C54       1.0  0.60699  0.70428  0.50003  1.0000
  N   N1        1.0  0.38460  0.49963  0.49958  1.0000
  N   N2        1.0  0.38930  0.70935  0.50001  1.0000
  Fe  Fe1       1.0  0.49641  0.40536  0.49940  1.0000
  Cr  Cr1       1.0  0.49710  0.58912  0.49950  1.0000
