data_image0
_chemical_formula_structural       C52N5FeSc
_chemical_formula_sum              "C52 N5 Fe1 Sc1"
_cell_length_a       12.8633
_cell_length_b       12.385
_cell_length_c       19.9437
_cell_angle_alpha    90.5806
_cell_angle_beta     90.0975
_cell_angle_gamma    90.6887

_space_group_name_H-M_alt    "P 1"
_space_group_IT_number       1

loop_
  _space_group_symop_operation_xyz
  'x, y, z'

loop_
  _atom_site_type_symbol
  _atom_site_label
  _atom_site_symmetry_multiplicity
  _atom_site_fract_x
  _atom_site_fract_y
  _atom_site_fract_z
  _atom_site_occupancy
  C   C1        1.0  0.22230  0.00247  0.50346  1.0000
  C   C2        1.0  0.05737  0.10256  0.50224  1.0000
  C   C3        1.0  0.11097  0.00201  0.50184  1.0000
  C   C4        1.0  0.27835  0.10365  0.50539  1.0000
  C   C5        1.0  0.22540  0.20579  0.50494  1.0000
  C   C6        1.0  0.05807  0.30346  0.50234  1.0000
  C   C7        1.0  0.11352  0.20377  0.50317  1.0000
  C   C8        1.0  0.28273  0.30758  0.50603  1.0000
  C   C9        1.0  0.22595  0.40932  0.50337  1.0000
  C   C10       1.0  0.05404  0.50281  0.49938  1.0000
  C   C11       1.0  0.11284  0.40482  0.50175  1.0000
  C   C12       1.0  0.21916  0.60418  0.50013  1.0000
  C   C13       1.0  0.05214  0.70187  0.49805  1.0000
  C   C14       1.0  0.10828  0.60346  0.49863  1.0000
  C   C15       1.0  0.27584  0.70354  0.50061  1.0000
  C   C16       1.0  0.22017  0.80202  0.50051  1.0000
  C   C17       1.0  0.05440  0.90180  0.50030  1.0000
  C   C18       1.0  0.10866  0.80165  0.49936  1.0000
  C   C19       1.0  0.27643  0.90252  0.50317  1.0000
  C   C20       1.0  0.55464  0.99896  0.50732  1.0000
  C   C21       1.0  0.38896  0.10042  0.50708  1.0000
  C   C22       1.0  0.44382  0.99968  0.50668  1.0000
  C   C23       1.0  0.61197  0.09785  0.50796  1.0000
  C   C24       1.0  0.55704  0.19620  0.50888  1.0000
  C   C25       1.0  0.39461  0.30178  0.50857  1.0000
  C   C26       1.0  0.44622  0.19957  0.50850  1.0000
  C   C27       1.0  0.61491  0.29382  0.50596  1.0000
  C   C28       1.0  0.56079  0.39044  0.50326  1.0000
  C   C29       1.0  0.55353  0.79979  0.50062  1.0000
  C   C30       1.0  0.38788  0.89927  0.50474  1.0000
  C   C31       1.0  0.44144  0.79792  0.50374  1.0000
  C   C32       1.0  0.60901  0.89988  0.50419  1.0000
  C   C33       1.0  0.88907  0.00057  0.50178  1.0000
  C   C34       1.0  0.72301  0.09891  0.50545  1.0000
  C   C35       1.0  0.77745  0.99941  0.50329  1.0000
  C   C36       1.0  0.94586  0.10097  0.50214  1.0000
  C   C37       1.0  0.89116  0.20063  0.50254  1.0000
  C   C38       1.0  0.72503  0.29703  0.50307  1.0000
  C   C39       1.0  0.78003  0.19871  0.50388  1.0000
  C   C40       1.0  0.94595  0.30181  0.50180  1.0000
  C   C41       1.0  0.88884  0.40067  0.50020  1.0000
  C   C42       1.0  0.71781  0.49562  0.49512  1.0000
  C   C43       1.0  0.77744  0.39884  0.50009  1.0000
  C   C44       1.0  0.94214  0.50176  0.49817  1.0000
  C   C45       1.0  0.88368  0.60032  0.49604  1.0000
  C   C46       1.0  0.71518  0.70080  0.49459  1.0000
  C   C47       1.0  0.77019  0.59895  0.49367  1.0000
  C   C48       1.0  0.94032  0.70026  0.49729  1.0000
  C   C49       1.0  0.88582  0.80005  0.49903  1.0000
  C   C50       1.0  0.72043  0.90003  0.50222  1.0000
  C   C51       1.0  0.77427  0.79948  0.49928  1.0000
  C   C52       1.0  0.94286  0.90058  0.50032  1.0000
  N   N1        1.0  0.27593  0.50922  0.50244  1.0000
  N   N2        1.0  0.45483  0.39508  0.51017  1.0000
  N   N3        1.0  0.60919  0.48812  0.49083  1.0000
  N   N4        1.0  0.38507  0.69852  0.50383  1.0000
  N   N5        1.0  0.60736  0.70410  0.49063  1.0000
  Fe  Fe1       1.0  0.41824  0.53902  0.51646  1.0000
  Sc  Sc1       1.0  0.50676  0.59727  0.43536  1.0000
