data_image0
_chemical_formula_structural       C52N5CoFe
_chemical_formula_sum              "C52 N5 Co1 Fe1"
_cell_length_a       12.81
_cell_length_b       12.4
_cell_length_c       20
_cell_angle_alpha    90
_cell_angle_beta     90
_cell_angle_gamma    90

_space_group_name_H-M_alt    "P 1"
_space_group_IT_number       1

loop_
  _space_group_symop_operation_xyz
  'x, y, z'

loop_
  _atom_site_type_symbol
  _atom_site_label
  _atom_site_symmetry_multiplicity
  _atom_site_fract_x
  _atom_site_fract_y
  _atom_site_fract_z
  _atom_site_occupancy
  C   C1        1.0  0.22254  0.00228  0.49915  1.0000
  C   C2        1.0  0.05745  0.10226  0.49844  1.0000
  C   C3        1.0  0.11135  0.00155  0.49849  1.0000
  C   C4        1.0  0.27824  0.10322  0.50137  1.0000
  C   C5        1.0  0.22490  0.20513  0.50402  1.0000
  C   C6        1.0  0.05677  0.30267  0.49939  1.0000
  C   C7        1.0  0.11296  0.20324  0.50062  1.0000
  C   C8        1.0  0.28151  0.30604  0.50978  1.0000
  C   C9        1.0  0.22240  0.40683  0.50904  1.0000
  C   C10       1.0  0.05412  0.50328  0.49994  1.0000
  C   C11       1.0  0.11119  0.40353  0.50171  1.0000
  C   C12       1.0  0.22181  0.60241  0.50449  1.0000
  C   C13       1.0  0.05352  0.70173  0.49720  1.0000
  C   C14       1.0  0.11006  0.60315  0.49968  1.0000
  C   C15       1.0  0.28198  0.70153  0.50032  1.0000
  C   C16       1.0  0.22343  0.80054  0.49797  1.0000
  C   C17       1.0  0.05588  0.90114  0.49729  1.0000
  C   C18       1.0  0.11108  0.80068  0.49747  1.0000
  C   C19       1.0  0.27727  0.90238  0.49790  1.0000
  C   C20       1.0  0.55531  0.00149  0.49618  1.0000
  C   C21       1.0  0.38894  0.10154  0.50005  1.0000
  C   C22       1.0  0.44439  0.00199  0.49734  1.0000
  C   C23       1.0  0.61246  0.09937  0.49634  1.0000
  C   C24       1.0  0.55720  0.19758  0.49978  1.0000
  C   C25       1.0  0.39451  0.30079  0.51153  1.0000
  C   C26       1.0  0.44607  0.19998  0.50287  1.0000
  C   C27       1.0  0.61477  0.29466  0.50020  1.0000
  C   C28       1.0  0.56047  0.39080  0.50938  1.0000
  C   C29       1.0  0.55475  0.80448  0.49630  1.0000
  C   C30       1.0  0.38854  0.90257  0.49728  1.0000
  C   C31       1.0  0.44297  0.80337  0.49716  1.0000
  C   C32       1.0  0.61045  0.90262  0.49566  1.0000
  C   C33       1.0  0.89011  0.00089  0.49582  1.0000
  C   C34       1.0  0.72365  0.10004  0.49510  1.0000
  C   C35       1.0  0.77865  0.00042  0.49513  1.0000
  C   C36       1.0  0.94624  0.10113  0.49647  1.0000
  C   C37       1.0  0.89103  0.20093  0.49589  1.0000
  C   C38       1.0  0.72495  0.29822  0.49680  1.0000
  C   C39       1.0  0.78006  0.19942  0.49520  1.0000
  C   C40       1.0  0.94511  0.30182  0.49708  1.0000
  C   C41       1.0  0.88831  0.40155  0.49754  1.0000
  C   C42       1.0  0.71654  0.49734  0.50117  1.0000
  C   C43       1.0  0.77698  0.39978  0.49833  1.0000
  C   C44       1.0  0.94210  0.50250  0.49822  1.0000
  C   C45       1.0  0.88342  0.60121  0.49749  1.0000
  C   C46       1.0  0.71474  0.70191  0.49727  1.0000
  C   C47       1.0  0.76965  0.60007  0.49841  1.0000
  C   C48       1.0  0.94117  0.70046  0.49667  1.0000
  C   C49       1.0  0.88657  0.80053  0.49633  1.0000
  C   C50       1.0  0.72178  0.90155  0.49555  1.0000
  C   C51       1.0  0.77473  0.80051  0.49635  1.0000
  C   C52       1.0  0.94401  0.90039  0.49640  1.0000
  N   N1        1.0  0.27164  0.50534  0.51575  1.0000
  N   N2        1.0  0.45605  0.39097  0.52218  1.0000
  N   N3        1.0  0.60880  0.48994  0.50698  1.0000
  N   N4        1.0  0.39240  0.70381  0.49955  1.0000
  N   N5        1.0  0.60668  0.70681  0.49680  1.0000
  Co  Co1       1.0  0.39691  0.51162  0.56462  1.0000
  Fe  Fe1       1.0  0.50373  0.59762  0.50441  1.0000
