data_image0
_chemical_formula_structural       C50N6FeMn
_chemical_formula_sum              "C50 N6 Fe1 Mn1"
_cell_length_a       12.6697
_cell_length_b       12.5405
_cell_length_c       19.9954
_cell_angle_alpha    90.0416
_cell_angle_beta     90.0937
_cell_angle_gamma    89.6718

_space_group_name_H-M_alt    "P 1"
_space_group_IT_number       1

loop_
  _space_group_symop_operation_xyz
  'x, y, z'

loop_
  _atom_site_type_symbol
  _atom_site_label
  _atom_site_symmetry_multiplicity
  _atom_site_fract_x
  _atom_site_fract_y
  _atom_site_fract_z
  _atom_site_occupancy
  C   C1        1.0  0.22153  0.99845  0.50095  1.0000
  C   C2        1.0  0.05466  0.09930  0.50024  1.0000
  C   C3        1.0  0.10997  0.99923  0.50084  1.0000
  C   C4        1.0  0.27697  0.09593  0.50081  1.0000
  C   C5        1.0  0.22200  0.19475  0.50048  1.0000
  C   C6        1.0  0.05712  0.29970  0.49991  1.0000
  C   C7        1.0  0.11019  0.19819  0.49991  1.0000
  C   C8        1.0  0.27993  0.29087  0.50052  1.0000
  C   C9        1.0  0.06449  0.49769  0.49969  1.0000
  C   C10       1.0  0.11929  0.39576  0.49897  1.0000
  C   C11       1.0  0.05942  0.69831  0.50074  1.0000
  C   C12       1.0  0.12020  0.59984  0.50027  1.0000
  C   C13       1.0  0.27899  0.70341  0.49992  1.0000
  C   C14       1.0  0.22337  0.80129  0.50111  1.0000
  C   C15       1.0  0.05590  0.89920  0.50100  1.0000
  C   C16       1.0  0.11163  0.79959  0.50126  1.0000
  C   C17       1.0  0.27781  0.90004  0.50084  1.0000
  C   C18       1.0  0.55601  0.99904  0.49867  1.0000
  C   C19       1.0  0.38866  0.09613  0.50014  1.0000
  C   C20       1.0  0.44486  0.99824  0.49937  1.0000
  C   C21       1.0  0.61046  0.09782  0.49890  1.0000
  C   C22       1.0  0.55480  0.19579  0.50024  1.0000
  C   C23       1.0  0.44242  0.19422  0.50116  1.0000
  C   C24       1.0  0.55311  0.60822  0.49794  1.0000
  C   C25       1.0  0.39130  0.70435  0.49765  1.0000
  C   C26       1.0  0.61139  0.70444  0.49808  1.0000
  C   C27       1.0  0.55672  0.80313  0.49791  1.0000
  C   C28       1.0  0.38891  0.90050  0.49983  1.0000
  C   C29       1.0  0.44507  0.80249  0.49860  1.0000
  C   C30       1.0  0.61230  0.90068  0.49846  1.0000
  C   C31       1.0  0.88924  0.99987  0.49991  1.0000
  C   C32       1.0  0.72219  0.09953  0.49921  1.0000
  C   C33       1.0  0.77784  0.99997  0.49928  1.0000
  C   C34       1.0  0.94271  0.10040  0.50002  1.0000
  C   C35       1.0  0.88745  0.20133  0.50012  1.0000
  C   C36       1.0  0.71396  0.29934  0.50104  1.0000
  C   C37       1.0  0.77461  0.20094  0.50003  1.0000
  C   C38       1.0  0.94329  0.30126  0.50037  1.0000
  C   C39       1.0  0.88613  0.40089  0.50070  1.0000
  C   C40       1.0  0.71505  0.50362  0.50152  1.0000
  C   C41       1.0  0.76970  0.40151  0.50139  1.0000
  C   C42       1.0  0.94809  0.49832  0.50031  1.0000
  C   C43       1.0  0.89083  0.59795  0.50034  1.0000
  C   C44       1.0  0.72334  0.70090  0.49956  1.0000
  C   C45       1.0  0.77704  0.59953  0.50033  1.0000
  C   C46       1.0  0.94654  0.69790  0.50042  1.0000
  C   C47       1.0  0.89105  0.79865  0.50025  1.0000
  C   C48       1.0  0.72373  0.89987  0.49900  1.0000
  C   C49       1.0  0.77900  0.79972  0.49962  1.0000
  C   C50       1.0  0.94450  0.89924  0.50040  1.0000
  N   N1        1.0  0.23032  0.38837  0.49671  1.0000
  N   N2        1.0  0.22958  0.60557  0.49991  1.0000
  N   N3        1.0  0.38860  0.29058  0.50372  1.0000
  N   N4        1.0  0.60462  0.29358  0.50186  1.0000
  N   N5        1.0  0.60437  0.51171  0.50296  1.0000
  N   N6        1.0  0.44406  0.60729  0.49467  1.0000
  Fe  Fe1       1.0  0.33773  0.49397  0.49073  1.0000
  Mn  Mn1       1.0  0.49123  0.40719  0.51374  1.0000
