data_image0
_chemical_formula_structural       C52N4CuFe
_chemical_formula_sum              "C52 N4 Cu1 Fe1"
_cell_length_a       12.7271
_cell_length_b       12.5054
_cell_length_c       19.9607
_cell_angle_alpha    90.0102
_cell_angle_beta     89.987
_cell_angle_gamma    89.966

_space_group_name_H-M_alt    "P 1"
_space_group_IT_number       1

loop_
  _space_group_symop_operation_xyz
  'x, y, z'

loop_
  _atom_site_type_symbol
  _atom_site_label
  _atom_site_symmetry_multiplicity
  _atom_site_fract_x
  _atom_site_fract_y
  _atom_site_fract_z
  _atom_site_occupancy
  C   C1        1.0  0.22018  0.99931  0.50002  1.0000
  C   C2        1.0  0.05470  0.10016  0.50002  1.0000
  C   C3        1.0  0.10906  0.99946  0.50002  1.0000
  C   C4        1.0  0.27560  0.09858  0.49999  1.0000
  C   C5        1.0  0.22233  0.19890  0.49996  1.0000
  C   C6        1.0  0.05598  0.30049  0.50000  1.0000
  C   C7        1.0  0.11050  0.20019  0.50000  1.0000
  C   C8        1.0  0.28189  0.29700  0.49988  1.0000
  C   C9        1.0  0.22679  0.39889  0.49989  1.0000
  C   C10       1.0  0.05690  0.50055  0.50000  1.0000
  C   C11       1.0  0.11416  0.40001  0.49997  1.0000
  C   C12       1.0  0.28440  0.50045  0.49983  1.0000
  C   C13       1.0  0.22700  0.60157  0.49995  1.0000
  C   C14       1.0  0.05573  0.69933  0.50002  1.0000
  C   C15       1.0  0.11400  0.60052  0.50000  1.0000
  C   C16       1.0  0.28341  0.70209  0.49998  1.0000
  C   C17       1.0  0.22334  0.80021  0.50001  1.0000
  C   C18       1.0  0.05469  0.89903  0.50002  1.0000
  C   C19       1.0  0.11105  0.79920  0.50002  1.0000
  C   C20       1.0  0.27637  0.90058  0.50003  1.0000
  C   C21       1.0  0.55465  0.00007  0.50004  1.0000
  C   C22       1.0  0.38670  0.09718  0.49999  1.0000
  C   C23       1.0  0.44370  0.99973  0.50004  1.0000
  C   C24       1.0  0.61022  0.09883  0.49998  1.0000
  C   C25       1.0  0.55408  0.19735  0.49988  1.0000
  C   C26       1.0  0.44079  0.19499  0.49989  1.0000
  C   C27       1.0  0.55534  0.80340  0.50002  1.0000
  C   C28       1.0  0.38798  0.90185  0.50005  1.0000
  C   C29       1.0  0.44303  0.80422  0.50002  1.0000
  C   C30       1.0  0.61030  0.90144  0.50004  1.0000
  C   C31       1.0  0.88849  0.99974  0.50002  1.0000
  C   C32       1.0  0.72161  0.09998  0.49999  1.0000
  C   C33       1.0  0.77721  0.99992  0.50002  1.0000
  C   C34       1.0  0.94328  0.10026  0.50002  1.0000
  C   C35       1.0  0.88801  0.20055  0.50000  1.0000
  C   C36       1.0  0.71816  0.29973  0.49988  1.0000
  C   C37       1.0  0.77581  0.20015  0.49996  1.0000
  C   C38       1.0  0.94382  0.30046  0.50000  1.0000
  C   C39       1.0  0.88692  0.40051  0.49998  1.0000
  C   C40       1.0  0.71657  0.49911  0.49985  1.0000
  C   C41       1.0  0.77547  0.39968  0.49990  1.0000
  C   C42       1.0  0.94378  0.50084  0.50000  1.0000
  C   C43       1.0  0.88558  0.60037  0.49999  1.0000
  C   C44       1.0  0.71536  0.70120  0.49997  1.0000
  C   C45       1.0  0.77217  0.60106  0.49994  1.0000
  C   C46       1.0  0.94309  0.69934  0.50002  1.0000
  C   C47       1.0  0.88707  0.79900  0.50002  1.0000
  C   C48       1.0  0.72190  0.90068  0.50003  1.0000
  C   C49       1.0  0.77470  0.79972  0.50001  1.0000
  C   C50       1.0  0.94284  0.89907  0.50002  1.0000
  C   C51       1.0  0.60742  0.29645  0.49980  1.0000
  C   C52       1.0  0.60803  0.50045  0.49972  1.0000
  N   N1        1.0  0.38932  0.29026  0.49982  1.0000
  N   N2        1.0  0.38801  0.50264  0.49965  1.0000
  N   N3        1.0  0.39217  0.70729  0.49997  1.0000
  N   N4        1.0  0.60550  0.70489  0.49995  1.0000
  Cu  Cu1       1.0  0.49892  0.39980  0.49968  1.0000
  Fe  Fe1       1.0  0.49830  0.59379  0.49976  1.0000
