data_image0
_chemical_formula_structural       C54N2CoFe
_chemical_formula_sum              "C54 N2 Co1 Fe1"
_cell_length_a       12.7621
_cell_length_b       12.4856
_cell_length_c       19.9376
_cell_angle_alpha    90.0157
_cell_angle_beta     89.9887
_cell_angle_gamma    90.0472

_space_group_name_H-M_alt    "P 1"
_space_group_IT_number       1

loop_
  _space_group_symop_operation_xyz
  'x, y, z'

loop_
  _atom_site_type_symbol
  _atom_site_label
  _atom_site_symmetry_multiplicity
  _atom_site_fract_x
  _atom_site_fract_y
  _atom_site_fract_z
  _atom_site_occupancy
  C   C1        1.0  0.22081  0.00052  0.50002  1.0000
  C   C2        1.0  0.05505  0.10072  0.50001  1.0000
  C   C3        1.0  0.10981  0.00025  0.50001  1.0000
  C   C4        1.0  0.27682  0.10027  0.50000  1.0000
  C   C5        1.0  0.22327  0.20072  0.49997  1.0000
  C   C6        1.0  0.05450  0.30000  0.50002  1.0000
  C   C7        1.0  0.11091  0.20056  0.50001  1.0000
  C   C8        1.0  0.28161  0.30001  0.49988  1.0000
  C   C9        1.0  0.22287  0.39915  0.49990  1.0000
  C   C10       1.0  0.05447  0.49948  0.50001  1.0000
  C   C11       1.0  0.11111  0.39969  0.49999  1.0000
  C   C12       1.0  0.27934  0.49891  0.49984  1.0000
  C   C13       1.0  0.22376  0.59966  0.49995  1.0000
  C   C14       1.0  0.05493  0.69945  0.50002  1.0000
  C   C15       1.0  0.11164  0.59946  0.50001  1.0000
  C   C16       1.0  0.28145  0.70020  0.49998  1.0000
  C   C17       1.0  0.22282  0.79961  0.50002  1.0000
  C   C18       1.0  0.05520  0.89943  0.50000  1.0000
  C   C19       1.0  0.11085  0.79945  0.50001  1.0000
  C   C20       1.0  0.27608  0.90058  0.50003  1.0000
  C   C21       1.0  0.55452  0.00057  0.50004  1.0000
  C   C22       1.0  0.38837  0.10004  0.49999  1.0000
  C   C23       1.0  0.44343  0.00087  0.50004  1.0000
  C   C24       1.0  0.61115  0.09870  0.50000  1.0000
  C   C25       1.0  0.55660  0.19647  0.49990  1.0000
  C   C26       1.0  0.44433  0.19850  0.49990  1.0000
  C   C27       1.0  0.55511  0.80495  0.50002  1.0000
  C   C28       1.0  0.38717  0.90219  0.50004  1.0000
  C   C29       1.0  0.44259  0.80409  0.50001  1.0000
  C   C30       1.0  0.61083  0.90245  0.50004  1.0000
  C   C31       1.0  0.88904  0.99995  0.50001  1.0000
  C   C32       1.0  0.72237  0.09896  0.50000  1.0000
  C   C33       1.0  0.77813  0.99969  0.50002  1.0000
  C   C34       1.0  0.94342  0.10061  0.50002  1.0000
  C   C35       1.0  0.88722  0.20024  0.50001  1.0000
  C   C36       1.0  0.71526  0.29767  0.49989  1.0000
  C   C37       1.0  0.77513  0.19943  0.49998  1.0000
  C   C38       1.0  0.94257  0.29998  0.50002  1.0000
  C   C39       1.0  0.88488  0.39913  0.49999  1.0000
  C   C40       1.0  0.71713  0.49932  0.49982  1.0000
  C   C41       1.0  0.77242  0.39819  0.49990  1.0000
  C   C42       1.0  0.94191  0.49929  0.50002  1.0000
  C   C43       1.0  0.88575  0.59945  0.50001  1.0000
  C   C44       1.0  0.71683  0.70047  0.49998  1.0000
  C   C45       1.0  0.77393  0.60038  0.49995  1.0000
  C   C46       1.0  0.94301  0.69943  0.50003  1.0000
  C   C47       1.0  0.88755  0.79954  0.50001  1.0000
  C   C48       1.0  0.72218  0.90037  0.50003  1.0000
  C   C49       1.0  0.77559  0.79984  0.50002  1.0000
  C   C50       1.0  0.94369  0.89941  0.50000  1.0000
  C   C51       1.0  0.39372  0.30025  0.49979  1.0000
  C   C52       1.0  0.38899  0.49613  0.49967  1.0000
  C   C53       1.0  0.39279  0.70241  0.49995  1.0000
  C   C54       1.0  0.60550  0.70455  0.49996  1.0000
  N   N1        1.0  0.60701  0.29390  0.49981  1.0000
  N   N2        1.0  0.61272  0.50045  0.49962  1.0000
  Co  Co1       1.0  0.50179  0.40845  0.49961  1.0000
  Fe  Fe1       1.0  0.50246  0.58809  0.49967  1.0000
