data_image0
_chemical_formula_structural       C54N2FeCr
_chemical_formula_sum              "C54 N2 Fe1 Cr1"
_cell_length_a       12.7968
_cell_length_b       12.5429
_cell_length_c       19.7924
_cell_angle_alpha    90.0149
_cell_angle_beta     89.9857
_cell_angle_gamma    90.0303

_space_group_name_H-M_alt    "P 1"
_space_group_IT_number       1

loop_
  _space_group_symop_operation_xyz
  'x, y, z'

loop_
  _atom_site_type_symbol
  _atom_site_label
  _atom_site_symmetry_multiplicity
  _atom_site_fract_x
  _atom_site_fract_y
  _atom_site_fract_z
  _atom_site_occupancy
  C   C1        1.0  0.22004  0.00014  0.50002  1.0000
  C   C2        1.0  0.05458  0.10019  0.50001  1.0000
  C   C3        1.0  0.10922  0.99993  0.50001  1.0000
  C   C4        1.0  0.27596  0.09911  0.50000  1.0000
  C   C5        1.0  0.22227  0.19937  0.49999  1.0000
  C   C6        1.0  0.05524  0.29973  0.50002  1.0000
  C   C7        1.0  0.11055  0.19983  0.50001  1.0000
  C   C8        1.0  0.28057  0.29831  0.49993  1.0000
  C   C9        1.0  0.22306  0.39848  0.49993  1.0000
  C   C10       1.0  0.05623  0.50051  0.50001  1.0000
  C   C11       1.0  0.11192  0.39971  0.50000  1.0000
  C   C12       1.0  0.27949  0.49934  0.49985  1.0000
  C   C13       1.0  0.22532  0.60173  0.49998  1.0000
  C   C14       1.0  0.05580  0.70014  0.50003  1.0000
  C   C15       1.0  0.11312  0.60097  0.50002  1.0000
  C   C16       1.0  0.28182  0.70310  0.50001  1.0000
  C   C17       1.0  0.22247  0.80100  0.50003  1.0000
  C   C18       1.0  0.05491  0.89960  0.50001  1.0000
  C   C19       1.0  0.11074  0.80001  0.50002  1.0000
  C   C20       1.0  0.27565  0.90124  0.50003  1.0000
  C   C21       1.0  0.55499  0.99956  0.50002  1.0000
  C   C22       1.0  0.38730  0.09696  0.49998  1.0000
  C   C23       1.0  0.44369  0.99945  0.50002  1.0000
  C   C24       1.0  0.61133  0.09755  0.49998  1.0000
  C   C25       1.0  0.55587  0.19501  0.49991  1.0000
  C   C26       1.0  0.44284  0.19399  0.49993  1.0000
  C   C27       1.0  0.55472  0.80356  0.50007  1.0000
  C   C28       1.0  0.38688  0.90215  0.50005  1.0000
  C   C29       1.0  0.44127  0.80483  0.50006  1.0000
  C   C30       1.0  0.61033  0.90150  0.50005  1.0000
  C   C31       1.0  0.88877  0.99969  0.50002  1.0000
  C   C32       1.0  0.72246  0.09909  0.50000  1.0000
  C   C33       1.0  0.77783  0.99954  0.50002  1.0000
  C   C34       1.0  0.94329  0.10019  0.50002  1.0000
  C   C35       1.0  0.88781  0.20000  0.50002  1.0000
  C   C36       1.0  0.71783  0.29889  0.49992  1.0000
  C   C37       1.0  0.77596  0.19977  0.49999  1.0000
  C   C38       1.0  0.94378  0.29967  0.50002  1.0000
  C   C39       1.0  0.88766  0.39964  0.50000  1.0000
  C   C40       1.0  0.72090  0.49967  0.49988  1.0000
  C   C41       1.0  0.77633  0.39906  0.49992  1.0000
  C   C42       1.0  0.94429  0.50032  0.50001  1.0000
  C   C43       1.0  0.88768  0.60045  0.50002  1.0000
  C   C44       1.0  0.71834  0.70119  0.50003  1.0000
  C   C45       1.0  0.77614  0.60093  0.49999  1.0000
  C   C46       1.0  0.94403  0.70014  0.50003  1.0000
  C   C47       1.0  0.88819  0.79985  0.50002  1.0000
  C   C48       1.0  0.72199  0.90022  0.50004  1.0000
  C   C49       1.0  0.77628  0.80002  0.50004  1.0000
  C   C50       1.0  0.94362  0.89956  0.50001  1.0000
  C   C51       1.0  0.39182  0.29373  0.49989  1.0000
  C   C52       1.0  0.60620  0.29598  0.49981  1.0000
  C   C53       1.0  0.61228  0.50182  0.49965  1.0000
  C   C54       1.0  0.60647  0.70360  0.50000  1.0000
  N   N1        1.0  0.38308  0.49895  0.49955  1.0000
  N   N2        1.0  0.38994  0.70858  0.50001  1.0000
  Fe  Fe1       1.0  0.49593  0.40603  0.49931  1.0000
  Cr  Cr1       1.0  0.49723  0.58894  0.49930  1.0000
