data_image0
_chemical_formula_structural       C54N2CuFe
_chemical_formula_sum              "C54 N2 Cu1 Fe1"
_cell_length_a       12.7761
_cell_length_b       12.485
_cell_length_c       19.9167
_cell_angle_alpha    90.0117
_cell_angle_beta     89.986
_cell_angle_gamma    89.8768

_space_group_name_H-M_alt    "P 1"
_space_group_IT_number       1

loop_
  _space_group_symop_operation_xyz
  'x, y, z'

loop_
  _atom_site_type_symbol
  _atom_site_label
  _atom_site_symmetry_multiplicity
  _atom_site_fract_x
  _atom_site_fract_y
  _atom_site_fract_z
  _atom_site_occupancy
  C   C1        1.0  0.22029  0.99925  0.50002  1.0000
  C   C2        1.0  0.05477  0.10028  0.50002  1.0000
  C   C3        1.0  0.10946  0.99963  0.50002  1.0000
  C   C4        1.0  0.27582  0.09862  0.49999  1.0000
  C   C5        1.0  0.22243  0.19893  0.49996  1.0000
  C   C6        1.0  0.05553  0.30003  0.50000  1.0000
  C   C7        1.0  0.11061  0.20002  0.50000  1.0000
  C   C8        1.0  0.28165  0.29739  0.49988  1.0000
  C   C9        1.0  0.22545  0.39835  0.49989  1.0000
  C   C10       1.0  0.05635  0.49946  0.50000  1.0000
  C   C11       1.0  0.11320  0.39934  0.49997  1.0000
  C   C12       1.0  0.28044  0.49973  0.49984  1.0000
  C   C13       1.0  0.22384  0.60086  0.49994  1.0000
  C   C14       1.0  0.05545  0.69974  0.50002  1.0000
  C   C15       1.0  0.11248  0.59965  0.50000  1.0000
  C   C16       1.0  0.28219  0.70013  0.49998  1.0000
  C   C17       1.0  0.22328  0.79965  0.50002  1.0000
  C   C18       1.0  0.05486  0.89917  0.50002  1.0000
  C   C19       1.0  0.11129  0.79950  0.50002  1.0000
  C   C20       1.0  0.27654  0.90003  0.50004  1.0000
  C   C21       1.0  0.55487  0.00056  0.50003  1.0000
  C   C22       1.0  0.38700  0.09802  0.49998  1.0000
  C   C23       1.0  0.44400  0.00017  0.50004  1.0000
  C   C24       1.0  0.61016  0.09954  0.49998  1.0000
  C   C25       1.0  0.55372  0.19840  0.49988  1.0000
  C   C26       1.0  0.44120  0.19599  0.49989  1.0000
  C   C27       1.0  0.55567  0.80367  0.50002  1.0000
  C   C28       1.0  0.38790  0.90178  0.50005  1.0000
  C   C29       1.0  0.44396  0.80453  0.50003  1.0000
  C   C30       1.0  0.61109  0.90150  0.50005  1.0000
  C   C31       1.0  0.88844  0.00002  0.50002  1.0000
  C   C32       1.0  0.72153  0.10035  0.49999  1.0000
  C   C33       1.0  0.77756  0.00016  0.50002  1.0000
  C   C34       1.0  0.94332  0.10047  0.50002  1.0000
  C   C35       1.0  0.88773  0.20049  0.50000  1.0000
  C   C36       1.0  0.71756  0.30042  0.49988  1.0000
  C   C37       1.0  0.77559  0.20043  0.49996  1.0000
  C   C38       1.0  0.94384  0.30012  0.50000  1.0000
  C   C39       1.0  0.88726  0.40007  0.49997  1.0000
  C   C40       1.0  0.72017  0.50012  0.49986  1.0000
  C   C41       1.0  0.77591  0.39998  0.49990  1.0000
  C   C42       1.0  0.94415  0.49982  0.50000  1.0000
  C   C43       1.0  0.88752  0.59996  0.49999  1.0000
  C   C44       1.0  0.71707  0.70027  0.49996  1.0000
  C   C45       1.0  0.77602  0.60095  0.49994  1.0000
  C   C46       1.0  0.94397  0.69988  0.50002  1.0000
  C   C47       1.0  0.88748  0.79957  0.50002  1.0000
  C   C48       1.0  0.72227  0.90056  0.50003  1.0000
  C   C49       1.0  0.77551  0.79976  0.50002  1.0000
  C   C50       1.0  0.94326  0.89931  0.50002  1.0000
  C   C51       1.0  0.60720  0.29783  0.49980  1.0000
  C   C52       1.0  0.61195  0.50737  0.49976  1.0000
  C   C53       1.0  0.39355  0.70385  0.49997  1.0000
  C   C54       1.0  0.60532  0.70120  0.49994  1.0000
  N   N1        1.0  0.38905  0.29214  0.49981  1.0000
  N   N2        1.0  0.38421  0.50625  0.49969  1.0000
  Cu  Cu1       1.0  0.49522  0.40186  0.49970  1.0000
  Fe  Fe1       1.0  0.49623  0.58546  0.49965  1.0000
