data_image0
_chemical_formula_structural       C54N2FeMn
_chemical_formula_sum              "C54 N2 Fe1 Mn1"
_cell_length_a       12.7848
_cell_length_b       12.5275
_cell_length_c       19.8356
_cell_angle_alpha    90.0161
_cell_angle_beta     89.9859
_cell_angle_gamma    90.0447

_space_group_name_H-M_alt    "P 1"
_space_group_IT_number       1

loop_
  _space_group_symop_operation_xyz
  'x, y, z'

loop_
  _atom_site_type_symbol
  _atom_site_label
  _atom_site_symmetry_multiplicity
  _atom_site_fract_x
  _atom_site_fract_y
  _atom_site_fract_z
  _atom_site_occupancy
  C   C1        1.0  0.22000  0.00015  0.50002  1.0000
  C   C2        1.0  0.05469  0.10027  0.50001  1.0000
  C   C3        1.0  0.10928  0.99984  0.50001  1.0000
  C   C4        1.0  0.27605  0.09923  0.50001  1.0000
  C   C5        1.0  0.22248  0.19954  0.49998  1.0000
  C   C6        1.0  0.05527  0.29994  0.50002  1.0000
  C   C7        1.0  0.11070  0.19990  0.50001  1.0000
  C   C8        1.0  0.28107  0.29853  0.49989  1.0000
  C   C9        1.0  0.22369  0.39891  0.49991  1.0000
  C   C10       1.0  0.05637  0.50040  0.50002  1.0000
  C   C11       1.0  0.11222  0.39995  0.50000  1.0000
  C   C12       1.0  0.28004  0.49950  0.49983  1.0000
  C   C13       1.0  0.22568  0.60134  0.49996  1.0000
  C   C14       1.0  0.05564  0.69982  0.50003  1.0000
  C   C15       1.0  0.11324  0.60063  0.50002  1.0000
  C   C16       1.0  0.28212  0.70286  0.49999  1.0000
  C   C17       1.0  0.22254  0.80080  0.50001  1.0000
  C   C18       1.0  0.05491  0.89938  0.50000  1.0000
  C   C19       1.0  0.11074  0.79976  0.50001  1.0000
  C   C20       1.0  0.27568  0.90113  0.50002  1.0000
  C   C21       1.0  0.55502  0.99956  0.50004  1.0000
  C   C22       1.0  0.38733  0.09714  0.50000  1.0000
  C   C23       1.0  0.44376  0.99955  0.50004  1.0000
  C   C24       1.0  0.61140  0.09767  0.50000  1.0000
  C   C25       1.0  0.55586  0.19520  0.49991  1.0000
  C   C26       1.0  0.44305  0.19429  0.49991  1.0000
  C   C27       1.0  0.55460  0.80317  0.50002  1.0000
  C   C28       1.0  0.38689  0.90209  0.50004  1.0000
  C   C29       1.0  0.44134  0.80459  0.50002  1.0000
  C   C30       1.0  0.61041  0.90131  0.50004  1.0000
  C   C31       1.0  0.88875  0.99968  0.50001  1.0000
  C   C32       1.0  0.72255  0.09919  0.50001  1.0000
  C   C33       1.0  0.77795  0.99961  0.50002  1.0000
  C   C34       1.0  0.94335  0.10028  0.50001  1.0000
  C   C35       1.0  0.88780  0.20008  0.50002  1.0000
  C   C36       1.0  0.71754  0.29893  0.49990  1.0000
  C   C37       1.0  0.77597  0.19989  0.49999  1.0000
  C   C38       1.0  0.94380  0.29991  0.50003  1.0000
  C   C39       1.0  0.88741  0.39987  0.50001  1.0000
  C   C40       1.0  0.72038  0.49977  0.49986  1.0000
  C   C41       1.0  0.77571  0.39942  0.49992  1.0000
  C   C42       1.0  0.94395  0.50019  0.50003  1.0000
  C   C43       1.0  0.88729  0.60008  0.50002  1.0000
  C   C44       1.0  0.71769  0.70093  0.49999  1.0000
  C   C45       1.0  0.77555  0.60038  0.49997  1.0000
  C   C46       1.0  0.94388  0.69980  0.50003  1.0000
  C   C47       1.0  0.88799  0.79961  0.50001  1.0000
  C   C48       1.0  0.72194  0.90007  0.50002  1.0000
  C   C49       1.0  0.77596  0.79978  0.50002  1.0000
  C   C50       1.0  0.94353  0.89933  0.50000  1.0000
  C   C51       1.0  0.39199  0.29392  0.49981  1.0000
  C   C52       1.0  0.60625  0.29620  0.49980  1.0000
  C   C53       1.0  0.61078  0.50075  0.49964  1.0000
  C   C54       1.0  0.60636  0.70336  0.49996  1.0000
  N   N1        1.0  0.38453  0.49850  0.49959  1.0000
  N   N2        1.0  0.39003  0.70838  0.49998  1.0000
  Fe  Fe1       1.0  0.49646  0.40769  0.49942  1.0000
  Mn  Mn1       1.0  0.49690  0.59056  0.49967  1.0000
