data_image0
_chemical_formula_structural       C54N2NiFe
_chemical_formula_sum              "C54 N2 Ni1 Fe1"
_cell_length_a       12.7582
_cell_length_b       12.4876
_cell_length_c       19.9404
_cell_angle_alpha    90.011
_cell_angle_beta     89.9863
_cell_angle_gamma    89.9351

_space_group_name_H-M_alt    "P 1"
_space_group_IT_number       1

loop_
  _space_group_symop_operation_xyz
  'x, y, z'

loop_
  _atom_site_type_symbol
  _atom_site_label
  _atom_site_symmetry_multiplicity
  _atom_site_fract_x
  _atom_site_fract_y
  _atom_site_fract_z
  _atom_site_occupancy
  C   C1        1.0  0.22024  0.99962  0.50002  1.0000
  C   C2        1.0  0.05495  0.10060  0.50002  1.0000
  C   C3        1.0  0.10942  0.99993  0.50001  1.0000
  C   C4        1.0  0.27598  0.09889  0.50000  1.0000
  C   C5        1.0  0.22313  0.19935  0.49997  1.0000
  C   C6        1.0  0.05580  0.30008  0.50001  1.0000
  C   C7        1.0  0.11111  0.20024  0.50000  1.0000
  C   C8        1.0  0.28301  0.29764  0.49987  1.0000
  C   C9        1.0  0.22617  0.39833  0.49989  1.0000
  C   C10       1.0  0.05651  0.49922  0.50001  1.0000
  C   C11       1.0  0.11348  0.39923  0.49998  1.0000
  C   C12       1.0  0.28138  0.49944  0.49984  1.0000
  C   C13       1.0  0.22434  0.60043  0.49995  1.0000
  C   C14       1.0  0.05543  0.69951  0.50002  1.0000
  C   C15       1.0  0.11278  0.59942  0.50001  1.0000
  C   C16       1.0  0.28188  0.70046  0.49998  1.0000
  C   C17       1.0  0.22295  0.79983  0.50002  1.0000
  C   C18       1.0  0.05474  0.89935  0.50000  1.0000
  C   C19       1.0  0.11099  0.79952  0.50001  1.0000
  C   C20       1.0  0.27629  0.90030  0.50003  1.0000
  C   C21       1.0  0.55497  0.00080  0.50004  1.0000
  C   C22       1.0  0.38714  0.09846  0.49999  1.0000
  C   C23       1.0  0.44386  0.00049  0.50004  1.0000
  C   C24       1.0  0.61006  0.09982  0.49999  1.0000
  C   C25       1.0  0.55392  0.19845  0.49988  1.0000
  C   C26       1.0  0.44160  0.19634  0.49989  1.0000
  C   C27       1.0  0.55579  0.80393  0.50002  1.0000
  C   C28       1.0  0.38758  0.90228  0.50005  1.0000
  C   C29       1.0  0.44333  0.80481  0.50003  1.0000
  C   C30       1.0  0.61117  0.90194  0.50005  1.0000
  C   C31       1.0  0.88853  0.00021  0.50001  1.0000
  C   C32       1.0  0.72153  0.10029  0.50000  1.0000
  C   C33       1.0  0.77759  0.00041  0.50002  1.0000
  C   C34       1.0  0.94330  0.10072  0.50002  1.0000
  C   C35       1.0  0.88746  0.20057  0.50001  1.0000
  C   C36       1.0  0.71672  0.30018  0.49987  1.0000
  C   C37       1.0  0.77515  0.20066  0.49997  1.0000
  C   C38       1.0  0.94386  0.30010  0.50001  1.0000
  C   C39       1.0  0.88720  0.39979  0.49999  1.0000
  C   C40       1.0  0.71909  0.49928  0.49984  1.0000
  C   C41       1.0  0.77525  0.39941  0.49989  1.0000
  C   C42       1.0  0.94398  0.49947  0.50001  1.0000
  C   C43       1.0  0.88691  0.59959  0.50001  1.0000
  C   C44       1.0  0.71707  0.70022  0.49998  1.0000
  C   C45       1.0  0.77510  0.60005  0.49994  1.0000
  C   C46       1.0  0.94371  0.69956  0.50002  1.0000
  C   C47       1.0  0.88761  0.79946  0.50001  1.0000
  C   C48       1.0  0.72230  0.90055  0.50003  1.0000
  C   C49       1.0  0.77564  0.79963  0.50002  1.0000
  C   C50       1.0  0.94326  0.89938  0.50001  1.0000
  C   C51       1.0  0.60508  0.29940  0.49978  1.0000
  C   C52       1.0  0.60974  0.50026  0.49970  1.0000
  C   C53       1.0  0.39295  0.70463  0.49996  1.0000
  C   C54       1.0  0.60557  0.70222  0.49995  1.0000
  N   N1        1.0  0.39100  0.29329  0.49979  1.0000
  N   N2        1.0  0.38587  0.50234  0.49967  1.0000
  Ni  Ni1       1.0  0.49620  0.40525  0.49965  1.0000
  Fe  Fe1       1.0  0.49673  0.58688  0.49972  1.0000
