data_image0
_chemical_formula_structural       C54N2FeSc
_chemical_formula_sum              "C54 N2 Fe1 Sc1"
_cell_length_a       12.8061
_cell_length_b       12.4691
_cell_length_c       19.8957
_cell_angle_alpha    90.0905
_cell_angle_beta     89.703
_cell_angle_gamma    90.2466

_space_group_name_H-M_alt    "P 1"
_space_group_IT_number       1

loop_
  _space_group_symop_operation_xyz
  'x, y, z'

loop_
  _atom_site_type_symbol
  _atom_site_label
  _atom_site_symmetry_multiplicity
  _atom_site_fract_x
  _atom_site_fract_y
  _atom_site_fract_z
  _atom_site_occupancy
  C   C1        1.0  0.22044  0.00080  0.50570  1.0000
  C   C2        1.0  0.05514  0.10065  0.50584  1.0000
  C   C3        1.0  0.10961  0.00034  0.50540  1.0000
  C   C4        1.0  0.27693  0.10013  0.50707  1.0000
  C   C5        1.0  0.22382  0.20066  0.50650  1.0000
  C   C6        1.0  0.05611  0.30011  0.50478  1.0000
  C   C7        1.0  0.11184  0.20041  0.50593  1.0000
  C   C8        1.0  0.28285  0.30037  0.50450  1.0000
  C   C9        1.0  0.22466  0.39978  0.50046  1.0000
  C   C10       1.0  0.05653  0.50007  0.50065  1.0000
  C   C11       1.0  0.11321  0.40032  0.50248  1.0000
  C   C12       1.0  0.28074  0.49981  0.49026  1.0000
  C   C13       1.0  0.22416  0.60122  0.49273  1.0000
  C   C14       1.0  0.05497  0.69969  0.50071  1.0000
  C   C15       1.0  0.11259  0.60036  0.49827  1.0000
  C   C16       1.0  0.27825  0.70361  0.49366  1.0000
  C   C17       1.0  0.22065  0.80166  0.50043  1.0000
  C   C18       1.0  0.05434  0.89995  0.50402  1.0000
  C   C19       1.0  0.10946  0.80028  0.50204  1.0000
  C   C20       1.0  0.27552  0.90138  0.50288  1.0000
  C   C21       1.0  0.55488  0.99837  0.50403  1.0000
  C   C22       1.0  0.38821  0.09824  0.50727  1.0000
  C   C23       1.0  0.44394  0.99945  0.50483  1.0000
  C   C24       1.0  0.61120  0.09780  0.50577  1.0000
  C   C25       1.0  0.55607  0.19613  0.50619  1.0000
  C   C26       1.0  0.44409  0.19603  0.50755  1.0000
  C   C27       1.0  0.55403  0.79884  0.49516  1.0000
  C   C28       1.0  0.38695  0.90159  0.50169  1.0000
  C   C29       1.0  0.43995  0.80302  0.49521  1.0000
  C   C30       1.0  0.60969  0.89900  0.50048  1.0000
  C   C31       1.0  0.88822  0.99956  0.50448  1.0000
  C   C32       1.0  0.72229  0.09872  0.50494  1.0000
  C   C33       1.0  0.77737  0.99908  0.50399  1.0000
  C   C34       1.0  0.94359  0.10021  0.50526  1.0000
  C   C35       1.0  0.88804  0.19981  0.50489  1.0000
  C   C36       1.0  0.71808  0.29862  0.50303  1.0000
  C   C37       1.0  0.77621  0.19938  0.50469  1.0000
  C   C38       1.0  0.94470  0.29963  0.50429  1.0000
  C   C39       1.0  0.88828  0.39933  0.50244  1.0000
  C   C40       1.0  0.72067  0.49810  0.49750  1.0000
  C   C41       1.0  0.77694  0.39822  0.50123  1.0000
  C   C42       1.0  0.94456  0.49949  0.50129  1.0000
  C   C43       1.0  0.88746  0.59894  0.50024  1.0000
  C   C44       1.0  0.71934  0.69953  0.49664  1.0000
  C   C45       1.0  0.77633  0.59869  0.49777  1.0000
  C   C46       1.0  0.94364  0.69934  0.50131  1.0000
  C   C47       1.0  0.88804  0.79932  0.50239  1.0000
  C   C48       1.0  0.72124  0.89878  0.50185  1.0000
  C   C49       1.0  0.77642  0.79917  0.50098  1.0000
  C   C50       1.0  0.94324  0.89945  0.50381  1.0000
  C   C51       1.0  0.39434  0.29753  0.50590  1.0000
  C   C52       1.0  0.60672  0.29815  0.50323  1.0000
  C   C53       1.0  0.61192  0.48849  0.49209  1.0000
  C   C54       1.0  0.60984  0.69985  0.49109  1.0000
  N   N1        1.0  0.38375  0.49884  0.47801  1.0000
  N   N2        1.0  0.38470  0.70907  0.48831  1.0000
  Fe  Fe1       1.0  0.49706  0.41307  0.49232  1.0000
  Sc  Sc1       1.0  0.49051  0.60412  0.44106  1.0000
