data_image0
_chemical_formula_structural       C54N2FeTi
_chemical_formula_sum              "C54 N2 Fe1 Ti1"
_cell_length_a       12.8007
_cell_length_b       12.4586
_cell_length_c       19.9209
_cell_angle_alpha    90.2875
_cell_angle_beta     89.8063
_cell_angle_gamma    90.1847

_space_group_name_H-M_alt    "P 1"
_space_group_IT_number       1

loop_
  _space_group_symop_operation_xyz
  'x, y, z'

loop_
  _atom_site_type_symbol
  _atom_site_label
  _atom_site_symmetry_multiplicity
  _atom_site_fract_x
  _atom_site_fract_y
  _atom_site_fract_z
  _atom_site_occupancy
  C   C1        1.0  0.22050  0.00035  0.50439  1.0000
  C   C2        1.0  0.05502  0.10060  0.50389  1.0000
  C   C3        1.0  0.10964  0.00005  0.50398  1.0000
  C   C4        1.0  0.27676  0.09975  0.50552  1.0000
  C   C5        1.0  0.22362  0.20051  0.50453  1.0000
  C   C6        1.0  0.05582  0.30040  0.50215  1.0000
  C   C7        1.0  0.11157  0.20051  0.50355  1.0000
  C   C8        1.0  0.28293  0.30008  0.50371  1.0000
  C   C9        1.0  0.22515  0.39988  0.50005  1.0000
  C   C10       1.0  0.05673  0.50020  0.49889  1.0000
  C   C11       1.0  0.11332  0.40044  0.50049  1.0000
  C   C12       1.0  0.28126  0.50046  0.49273  1.0000
  C   C13       1.0  0.22506  0.60123  0.49394  1.0000
  C   C14       1.0  0.05553  0.69962  0.50017  1.0000
  C   C15       1.0  0.11302  0.60043  0.49775  1.0000
  C   C16       1.0  0.28065  0.70258  0.49566  1.0000
  C   C17       1.0  0.22207  0.80081  0.50066  1.0000
  C   C18       1.0  0.05467  0.89945  0.50312  1.0000
  C   C19       1.0  0.11048  0.79978  0.50157  1.0000
  C   C20       1.0  0.27604  0.90091  0.50272  1.0000
  C   C21       1.0  0.55490  0.99788  0.50414  1.0000
  C   C22       1.0  0.38803  0.09767  0.50642  1.0000
  C   C23       1.0  0.44394  0.99884  0.50465  1.0000
  C   C24       1.0  0.61107  0.09738  0.50550  1.0000
  C   C25       1.0  0.55588  0.19581  0.50688  1.0000
  C   C26       1.0  0.44387  0.19540  0.50736  1.0000
  C   C27       1.0  0.55392  0.79826  0.49763  1.0000
  C   C28       1.0  0.38723  0.90090  0.50230  1.0000
  C   C29       1.0  0.44090  0.80213  0.49815  1.0000
  C   C30       1.0  0.60977  0.89839  0.50138  1.0000
  C   C31       1.0  0.88831  0.99945  0.50357  1.0000
  C   C32       1.0  0.72217  0.09882  0.50437  1.0000
  C   C33       1.0  0.77736  0.99900  0.50355  1.0000
  C   C34       1.0  0.94341  0.10032  0.50356  1.0000
  C   C35       1.0  0.88765  0.20020  0.50284  1.0000
  C   C36       1.0  0.71709  0.29955  0.50266  1.0000
  C   C37       1.0  0.77568  0.19999  0.50347  1.0000
  C   C38       1.0  0.94409  0.30016  0.50168  1.0000
  C   C39       1.0  0.88728  0.39997  0.49979  1.0000
  C   C40       1.0  0.71944  0.50016  0.49491  1.0000
  C   C41       1.0  0.77537  0.39952  0.49924  1.0000
  C   C42       1.0  0.94444  0.49974  0.49909  1.0000
  C   C43       1.0  0.88780  0.59929  0.49908  1.0000
  C   C44       1.0  0.71817  0.69865  0.49748  1.0000
  C   C45       1.0  0.77658  0.59944  0.49680  1.0000
  C   C46       1.0  0.94400  0.69935  0.50074  1.0000
  C   C47       1.0  0.88773  0.79890  0.50204  1.0000
  C   C48       1.0  0.72123  0.89861  0.50212  1.0000
  C   C49       1.0  0.77569  0.79856  0.50114  1.0000
  C   C50       1.0  0.94329  0.89909  0.50312  1.0000
  C   C51       1.0  0.39447  0.29707  0.50678  1.0000
  C   C52       1.0  0.60544  0.29856  0.50575  1.0000
  C   C53       1.0  0.61018  0.49935  0.48822  1.0000
  C   C54       1.0  0.60737  0.69785  0.49362  1.0000
  N   N1        1.0  0.38568  0.50063  0.48520  1.0000
  N   N2        1.0  0.38800  0.70690  0.49285  1.0000
  Fe  Fe1       1.0  0.49757  0.41529  0.50325  1.0000
  Ti  Ti1       1.0  0.48955  0.59742  0.44668  1.0000
