data_image0
_chemical_formula_structural       C54N2ZnFe
_chemical_formula_sum              "C54 N2 Zn1 Fe1"
_cell_length_a       12.8071
_cell_length_b       12.5149
_cell_length_c       19.8211
_cell_angle_alpha    90.0013
_cell_angle_beta     89.984
_cell_angle_gamma    89.8143

_space_group_name_H-M_alt    "P 1"
_space_group_IT_number       1

loop_
  _space_group_symop_operation_xyz
  'x, y, z'

loop_
  _atom_site_type_symbol
  _atom_site_label
  _atom_site_symmetry_multiplicity
  _atom_site_fract_x
  _atom_site_fract_y
  _atom_site_fract_z
  _atom_site_occupancy
  C   C1        1.0  0.22013  0.99891  0.50003  1.0000
  C   C2        1.0  0.05447  0.09999  0.50002  1.0000
  C   C3        1.0  0.10940  0.99953  0.50002  1.0000
  C   C4        1.0  0.27543  0.09809  0.50000  1.0000
  C   C5        1.0  0.22136  0.19815  0.49997  1.0000
  C   C6        1.0  0.05496  0.29988  0.49999  1.0000
  C   C7        1.0  0.10982  0.19962  0.50000  1.0000
  C   C8        1.0  0.28021  0.29626  0.49989  1.0000
  C   C9        1.0  0.22475  0.39809  0.49991  1.0000
  C   C10       1.0  0.05607  0.49938  0.49999  1.0000
  C   C11       1.0  0.11276  0.39907  0.49997  1.0000
  C   C12       1.0  0.27910  0.50032  0.49985  1.0000
  C   C13       1.0  0.22268  0.60120  0.49995  1.0000
  C   C14       1.0  0.05549  0.70015  0.50002  1.0000
  C   C15       1.0  0.11181  0.59987  0.50000  1.0000
  C   C16       1.0  0.28160  0.70018  0.49999  1.0000
  C   C17       1.0  0.22308  0.79970  0.50003  1.0000
  C   C18       1.0  0.05491  0.89933  0.50002  1.0000
  C   C19       1.0  0.11128  0.79973  0.50002  1.0000
  C   C20       1.0  0.27645  0.89980  0.50004  1.0000
  C   C21       1.0  0.55474  0.99951  0.50003  1.0000
  C   C22       1.0  0.38664  0.09703  0.49998  1.0000
  C   C23       1.0  0.44381  0.99939  0.50003  1.0000
  C   C24       1.0  0.61006  0.09800  0.49997  1.0000
  C   C25       1.0  0.55400  0.19649  0.49989  1.0000
  C   C26       1.0  0.44037  0.19490  0.49989  1.0000
  C   C27       1.0  0.55570  0.80338  0.50002  1.0000
  C   C28       1.0  0.38779  0.90129  0.50006  1.0000
  C   C29       1.0  0.44382  0.80413  0.50005  1.0000
  C   C30       1.0  0.61115  0.90091  0.50005  1.0000
  C   C31       1.0  0.88839  0.00004  0.50002  1.0000
  C   C32       1.0  0.72151  0.09989  0.49999  1.0000
  C   C33       1.0  0.77761  0.00005  0.50002  1.0000
  C   C34       1.0  0.94327  0.10025  0.50002  1.0000
  C   C35       1.0  0.88788  0.20017  0.50000  1.0000
  C   C36       1.0  0.71832  0.29945  0.49991  1.0000
  C   C37       1.0  0.77613  0.19980  0.49997  1.0000
  C   C38       1.0  0.94336  0.30013  0.49999  1.0000
  C   C39       1.0  0.88676  0.40032  0.49997  1.0000
  C   C40       1.0  0.72156  0.50234  0.49990  1.0000
  C   C41       1.0  0.77532  0.40045  0.49993  1.0000
  C   C42       1.0  0.94419  0.49988  0.49999  1.0000
  C   C43       1.0  0.88865  0.60061  0.50000  1.0000
  C   C44       1.0  0.71838  0.70131  0.49996  1.0000
  C   C45       1.0  0.77785  0.60229  0.49996  1.0000
  C   C46       1.0  0.94447  0.70051  0.50002  1.0000
  C   C47       1.0  0.88795  0.80008  0.50003  1.0000
  C   C48       1.0  0.72236  0.90066  0.50004  1.0000
  C   C49       1.0  0.77619  0.80043  0.50002  1.0000
  C   C50       1.0  0.94347  0.89960  0.50003  1.0000
  C   C51       1.0  0.60875  0.29398  0.49986  1.0000
  C   C52       1.0  0.61447  0.51719  0.49971  1.0000
  C   C53       1.0  0.39296  0.70374  0.50000  1.0000
  C   C54       1.0  0.60678  0.70183  0.49991  1.0000
  N   N1        1.0  0.38692  0.28971  0.49980  1.0000
  N   N2        1.0  0.38200  0.50694  0.49970  1.0000
  Zn  Zn1       1.0  0.49841  0.40123  0.49965  1.0000
  Fe  Fe1       1.0  0.49664  0.58736  0.49940  1.0000
