data_image0
_chemical_formula_structural       C54N2FeMn
_chemical_formula_sum              "C54 N2 Fe1 Mn1"
_cell_length_a       13.1127
_cell_length_b       12.3557
_cell_length_c       19.6082
_cell_angle_alpha    89.9867
_cell_angle_beta     89.9776
_cell_angle_gamma    90.011

_space_group_name_H-M_alt    "P 1"
_space_group_IT_number       1

loop_
  _space_group_symop_operation_xyz
  'x, y, z'

loop_
  _atom_site_type_symbol
  _atom_site_label
  _atom_site_symmetry_multiplicity
  _atom_site_fract_x
  _atom_site_fract_y
  _atom_site_fract_z
  _atom_site_occupancy
  C   C1        1.0  0.22500  0.00004  0.49980  1.0000
  C   C2        1.0  0.05634  0.09936  0.49996  1.0000
  C   C3        1.0  0.11272  0.00010  0.49991  1.0000
  C   C4        1.0  0.27982  0.10170  0.49960  1.0000
  C   C5        1.0  0.22175  0.20199  0.49955  1.0000
  C   C6        1.0  0.05136  0.29797  0.50008  1.0000
  C   C7        1.0  0.11073  0.19992  0.49987  1.0000
  C   C8        1.0  0.20866  0.39841  0.49962  1.0000
  C   C9        1.0  0.04794  0.49995  0.50027  1.0000
  C   C10       1.0  0.10160  0.39901  0.50009  1.0000
  C   C11       1.0  0.26170  0.49937  0.49926  1.0000
  C   C12       1.0  0.20874  0.60158  0.49983  1.0000
  C   C13       1.0  0.05093  0.70168  0.50020  1.0000
  C   C14       1.0  0.10140  0.60051  0.50022  1.0000
  C   C15       1.0  0.22008  0.79853  0.49991  1.0000
  C   C16       1.0  0.05561  0.90104  0.50002  1.0000
  C   C17       1.0  0.10944  0.80050  0.50006  1.0000
  C   C18       1.0  0.27968  0.89851  0.49984  1.0000
  C   C19       1.0  0.55731  0.00074  0.49995  1.0000
  C   C20       1.0  0.39201  0.10260  0.49959  1.0000
  C   C21       1.0  0.44648  0.00050  0.49983  1.0000
  C   C22       1.0  0.61405  0.10011  0.49991  1.0000
  C   C23       1.0  0.55917  0.20011  0.49960  1.0000
  C   C24       1.0  0.61686  0.30203  0.49958  1.0000
  C   C25       1.0  0.61435  0.49802  0.49953  1.0000
  C   C26       1.0  0.61635  0.69811  0.49982  1.0000
  C   C27       1.0  0.55996  0.80183  0.49991  1.0000
  C   C28       1.0  0.39229  0.89793  0.49984  1.0000
  C   C29       1.0  0.61447  0.90161  0.50005  1.0000
  C   C30       1.0  0.89019  0.00020  0.50012  1.0000
  C   C31       1.0  0.72392  0.09936  0.50007  1.0000
  C   C32       1.0  0.77978  0.00022  0.50014  1.0000
  C   C33       1.0  0.94577  0.09934  0.50010  1.0000
  C   C34       1.0  0.88866  0.19843  0.50014  1.0000
  C   C35       1.0  0.72550  0.29941  0.49991  1.0000
  C   C36       1.0  0.77941  0.19875  0.50007  1.0000
  C   C37       1.0  0.94227  0.29847  0.50018  1.0000
  C   C38       1.0  0.88787  0.39888  0.50019  1.0000
  C   C39       1.0  0.72424  0.49906  0.49986  1.0000
  C   C40       1.0  0.77932  0.39943  0.49999  1.0000
  C   C41       1.0  0.94068  0.49993  0.50026  1.0000
  C   C42       1.0  0.88724  0.60071  0.50017  1.0000
  C   C43       1.0  0.72524  0.70049  0.49997  1.0000
  C   C44       1.0  0.77843  0.60003  0.50000  1.0000
  C   C45       1.0  0.94177  0.70111  0.50017  1.0000
  C   C46       1.0  0.88848  0.80151  0.50010  1.0000
  C   C47       1.0  0.72419  0.90121  0.50011  1.0000
  C   C48       1.0  0.77943  0.80108  0.50007  1.0000
  C   C49       1.0  0.94535  0.90086  0.50008  1.0000
  C   C50       1.0  0.27104  0.30529  0.49922  1.0000
  C   C51       1.0  0.26832  0.69576  0.49962  1.0000
  C   C52       1.0  0.45010  0.20092  0.49939  1.0000
  C   C53       1.0  0.56123  0.59938  0.49953  1.0000
  C   C54       1.0  0.45180  0.80064  0.49977  1.0000
  N   N1        1.0  0.56392  0.39737  0.49928  1.0000
  N   N2        1.0  0.36202  0.49514  0.49827  1.0000
  Fe  Fe1       1.0  0.41417  0.35232  0.49870  1.0000
  Mn  Mn1       1.0  0.41329  0.64584  0.49876  1.0000
