data_image0
_chemical_formula_structural       C53N5FeV
_chemical_formula_sum              "C53 N5 Fe1 V1"
_cell_length_a       12.8621
_cell_length_b       12.3957
_cell_length_c       19.9279
_cell_angle_alpha    90.2304
_cell_angle_beta     89.4314
_cell_angle_gamma    90.5266

_space_group_name_H-M_alt    "P 1"
_space_group_IT_number       1

loop_
  _space_group_symop_operation_xyz
  'x, y, z'

loop_
  _atom_site_type_symbol
  _atom_site_label
  _atom_site_symmetry_multiplicity
  _atom_site_fract_x
  _atom_site_fract_y
  _atom_site_fract_z
  _atom_site_occupancy
  C   C1        1.0  0.22136  0.00064  0.49248  1.0000
  C   C2        1.0  0.05659  0.10053  0.48791  1.0000
  C   C3        1.0  0.11050  0.00021  0.49035  1.0000
  C   C4        1.0  0.27728  0.10161  0.49109  1.0000
  C   C5        1.0  0.22399  0.20341  0.49386  1.0000
  C   C6        1.0  0.05578  0.30049  0.49192  1.0000
  C   C7        1.0  0.11232  0.20149  0.49094  1.0000
  C   C8        1.0  0.28068  0.30462  0.50137  1.0000
  C   C9        1.0  0.21995  0.40449  0.50617  1.0000
  C   C10       1.0  0.05237  0.50090  0.50063  1.0000
  C   C11       1.0  0.10947  0.40142  0.49858  1.0000
  C   C12       1.0  0.21631  0.60110  0.51559  1.0000
  C   C13       1.0  0.05157  0.70044  0.50071  1.0000
  C   C14       1.0  0.10669  0.60144  0.50544  1.0000
  C   C15       1.0  0.27343  0.70251  0.51936  1.0000
  C   C16       1.0  0.21949  0.80049  0.50432  1.0000
  C   C17       1.0  0.05432  0.89983  0.49179  1.0000
  C   C18       1.0  0.10849  0.80020  0.49827  1.0000
  C   C19       1.0  0.27580  0.90078  0.49848  1.0000
  C   C20       1.0  0.55407  0.99816  0.48593  1.0000
  C   C21       1.0  0.38796  0.09939  0.48805  1.0000
  C   C22       1.0  0.44312  0.99944  0.48854  1.0000
  C   C23       1.0  0.61111  0.09708  0.48177  1.0000
  C   C24       1.0  0.55611  0.19574  0.48497  1.0000
  C   C25       1.0  0.39361  0.29861  0.50152  1.0000
  C   C26       1.0  0.44501  0.19833  0.48951  1.0000
  C   C27       1.0  0.61401  0.29352  0.48903  1.0000
  C   C28       1.0  0.56074  0.38833  0.50608  1.0000
  C   C29       1.0  0.38242  0.71297  0.53807  1.0000
  C   C30       1.0  0.55440  0.80255  0.50791  1.0000
  C   C31       1.0  0.38738  0.90047  0.49819  1.0000
  C   C32       1.0  0.44249  0.80405  0.51297  1.0000
  C   C33       1.0  0.60945  0.89953  0.49232  1.0000
  C   C34       1.0  0.88892  0.99897  0.48521  1.0000
  C   C35       1.0  0.72249  0.09764  0.48116  1.0000
  C   C36       1.0  0.77753  0.99828  0.48407  1.0000
  C   C37       1.0  0.94540  0.09941  0.48481  1.0000
  C   C38       1.0  0.89015  0.19881  0.48424  1.0000
  C   C39       1.0  0.72421  0.29602  0.48693  1.0000
  C   C40       1.0  0.77918  0.19732  0.48226  1.0000
  C   C41       1.0  0.94480  0.29968  0.48855  1.0000
  C   C42       1.0  0.88853  0.39897  0.49240  1.0000
  C   C43       1.0  0.71924  0.49269  0.50563  1.0000
  C   C44       1.0  0.77780  0.39688  0.49352  1.0000
  C   C45       1.0  0.94123  0.50014  0.49799  1.0000
  C   C46       1.0  0.88325  0.59912  0.50100  1.0000
  C   C47       1.0  0.71715  0.70203  0.50675  1.0000
  C   C48       1.0  0.77052  0.59808  0.50604  1.0000
  C   C49       1.0  0.94026  0.69922  0.49849  1.0000
  C   C50       1.0  0.88642  0.79916  0.49387  1.0000
  C   C51       1.0  0.72083  0.89924  0.49016  1.0000
  C   C52       1.0  0.77526  0.79955  0.49604  1.0000
  C   C53       1.0  0.94311  0.89909  0.48948  1.0000
  N   N1        1.0  0.26642  0.50305  0.51937  1.0000
  N   N2        1.0  0.45527  0.38805  0.51604  1.0000
  N   N3        1.0  0.61354  0.48265  0.51881  1.0000
  N   N4        1.0  0.42884  0.64657  0.58283  1.0000
  N   N5        1.0  0.61068  0.70921  0.51953  1.0000
  Fe  Fe1       1.0  0.39811  0.50864  0.56011  1.0000
  V   V1        1.0  0.56750  0.59805  0.58220  1.0000
