data_image0
_chemical_formula_structural       C54N4FeNi
_chemical_formula_sum              "C54 N4 Fe1 Ni1"
_cell_length_a       12.8884
_cell_length_b       12.2966
_cell_length_c       20.0851
_cell_angle_alpha    93.2163
_cell_angle_beta     91.3181
_cell_angle_gamma    90.8563

_space_group_name_H-M_alt    "P 1"
_space_group_IT_number       1

loop_
  _space_group_symop_operation_xyz
  'x, y, z'

loop_
  _atom_site_type_symbol
  _atom_site_label
  _atom_site_symmetry_multiplicity
  _atom_site_fract_x
  _atom_site_fract_y
  _atom_site_fract_z
  _atom_site_occupancy
  C   C1        1.0  0.22095  0.00386  0.49913  1.0000
  C   C2        1.0  0.05589  0.10274  0.49889  1.0000
  C   C3        1.0  0.10990  0.00294  0.49885  1.0000
  C   C4        1.0  0.27783  0.10440  0.49878  1.0000
  C   C5        1.0  0.22449  0.20637  0.49881  1.0000
  C   C6        1.0  0.05758  0.30297  0.49924  1.0000
  C   C7        1.0  0.11316  0.20365  0.49907  1.0000
  C   C8        1.0  0.28142  0.30884  0.49880  1.0000
  C   C9        1.0  0.22444  0.40983  0.50012  1.0000
  C   C10       1.0  0.05407  0.50248  0.49915  1.0000
  C   C11       1.0  0.11272  0.40458  0.49944  1.0000
  C   C12       1.0  0.21608  0.60502  0.50142  1.0000
  C   C13       1.0  0.05178  0.70343  0.49858  1.0000
  C   C14       1.0  0.10725  0.60414  0.49957  1.0000
  C   C15       1.0  0.27154  0.70547  0.50155  1.0000
  C   C16       1.0  0.21751  0.80415  0.50018  1.0000
  C   C17       1.0  0.05259  0.90289  0.49848  1.0000
  C   C18       1.0  0.10708  0.80349  0.49905  1.0000
  C   C19       1.0  0.27504  0.90342  0.49974  1.0000
  C   C20       1.0  0.55349  0.99654  0.49838  1.0000
  C   C21       1.0  0.38858  0.10139  0.49871  1.0000
  C   C22       1.0  0.44277  0.99930  0.49875  1.0000
  C   C23       1.0  0.61060  0.09701  0.49912  1.0000
  C   C24       1.0  0.55650  0.19751  0.49986  1.0000
  C   C25       1.0  0.39329  0.30505  0.49790  1.0000
  C   C26       1.0  0.44560  0.20174  0.49872  1.0000
  C   C27       1.0  0.61460  0.29623  0.50214  1.0000
  C   C28       1.0  0.55972  0.39567  0.50303  1.0000
  C   C29       1.0  0.61599  0.49778  0.50235  1.0000
  C   C30       1.0  0.60736  0.69235  0.49624  1.0000
  C   C31       1.0  0.54932  0.79246  0.49760  1.0000
  C   C32       1.0  0.38567  0.89891  0.49941  1.0000
  C   C33       1.0  0.43732  0.79502  0.49974  1.0000
  C   C34       1.0  0.60665  0.89468  0.49760  1.0000
  C   C35       1.0  0.88692  0.00035  0.49815  1.0000
  C   C36       1.0  0.72159  0.09818  0.49931  1.0000
  C   C37       1.0  0.77556  0.99822  0.49810  1.0000
  C   C38       1.0  0.94455  0.10070  0.49886  1.0000
  C   C39       1.0  0.88990  0.20019  0.49972  1.0000
  C   C40       1.0  0.72464  0.29779  0.50176  1.0000
  C   C41       1.0  0.77914  0.19832  0.50036  1.0000
  C   C42       1.0  0.94642  0.30093  0.49972  1.0000
  C   C43       1.0  0.89027  0.39975  0.49997  1.0000
  C   C44       1.0  0.72564  0.49775  0.50123  1.0000
  C   C45       1.0  0.78022  0.39824  0.50139  1.0000
  C   C46       1.0  0.94420  0.50092  0.49883  1.0000
  C   C47       1.0  0.88783  0.60041  0.49784  1.0000
  C   C48       1.0  0.71913  0.69689  0.49684  1.0000
  C   C49       1.0  0.77795  0.59897  0.49819  1.0000
  C   C50       1.0  0.94162  0.70154  0.49751  1.0000
  C   C51       1.0  0.88533  0.80029  0.49729  1.0000
  C   C52       1.0  0.71814  0.89741  0.49723  1.0000
  C   C53       1.0  0.77409  0.79820  0.49687  1.0000
  C   C54       1.0  0.94178  0.90099  0.49782  1.0000
  N   N1        1.0  0.27403  0.51087  0.50238  1.0000
  N   N2        1.0  0.45152  0.40024  0.49667  1.0000
  N   N3        1.0  0.55763  0.59199  0.49507  1.0000
  N   N4        1.0  0.37863  0.70007  0.50232  1.0000
  Fe  Fe1       1.0  0.41666  0.55049  0.50336  1.0000
  Ni  Ni1       1.0  0.52976  0.48963  0.58880  1.0000
