data_image0
_chemical_formula_structural       C52N4FeSc
_chemical_formula_sum              "C52 N4 Fe1 Sc1"
_cell_length_a       12.7166
_cell_length_b       12.5153
_cell_length_c       19.9619
_cell_angle_alpha    90.0015
_cell_angle_beta     90.0086
_cell_angle_gamma    89.5837

_space_group_name_H-M_alt    "P 1"
_space_group_IT_number       1

loop_
  _space_group_symop_operation_xyz
  'x, y, z'

loop_
  _atom_site_type_symbol
  _atom_site_label
  _atom_site_symmetry_multiplicity
  _atom_site_fract_x
  _atom_site_fract_y
  _atom_site_fract_z
  _atom_site_occupancy
  C   C1        1.0  0.22235  0.99826  0.50037  1.0000
  C   C2        1.0  0.05401  0.09794  0.49980  1.0000
  C   C3        1.0  0.11079  0.99848  0.50004  1.0000
  C   C4        1.0  0.27744  0.09746  0.50026  1.0000
  C   C5        1.0  0.21955  0.19459  0.49952  1.0000
  C   C6        1.0  0.05412  0.29781  0.49950  1.0000
  C   C7        1.0  0.10833  0.19673  0.49952  1.0000
  C   C8        1.0  0.27364  0.29266  0.50016  1.0000
  C   C9        1.0  0.06166  0.49792  0.49775  1.0000
  C   C10       1.0  0.11286  0.39521  0.49880  1.0000
  C   C11       1.0  0.06021  0.69765  0.49842  1.0000
  C   C12       1.0  0.12005  0.59832  0.49762  1.0000
  C   C13       1.0  0.27898  0.70116  0.49876  1.0000
  C   C14       1.0  0.22370  0.79978  0.49985  1.0000
  C   C15       1.0  0.05638  0.89860  0.49957  1.0000
  C   C16       1.0  0.11234  0.79889  0.49933  1.0000
  C   C17       1.0  0.27844  0.89948  0.50037  1.0000
  C   C18       1.0  0.55561  0.00024  0.50015  1.0000
  C   C19       1.0  0.38904  0.10092  0.50115  1.0000
  C   C20       1.0  0.44438  0.00069  0.50066  1.0000
  C   C21       1.0  0.61020  0.09974  0.50180  1.0000
  C   C22       1.0  0.55623  0.19964  0.50505  1.0000
  C   C23       1.0  0.44256  0.20343  0.50207  1.0000
  C   C24       1.0  0.55622  0.60446  0.49454  1.0000
  C   C25       1.0  0.39108  0.70013  0.49869  1.0000
  C   C26       1.0  0.61215  0.70322  0.49611  1.0000
  C   C27       1.0  0.55634  0.80186  0.49781  1.0000
  C   C28       1.0  0.38954  0.90063  0.50003  1.0000
  C   C29       1.0  0.44480  0.80055  0.49890  1.0000
  C   C30       1.0  0.61145  0.90086  0.49863  1.0000
  C   C31       1.0  0.88866  0.99909  0.49953  1.0000
  C   C32       1.0  0.72183  0.09979  0.50134  1.0000
  C   C33       1.0  0.77734  0.99968  0.49976  1.0000
  C   C34       1.0  0.94241  0.09905  0.49970  1.0000
  C   C35       1.0  0.88725  0.19983  0.49990  1.0000
  C   C36       1.0  0.71694  0.29941  0.50430  1.0000
  C   C37       1.0  0.77547  0.20010  0.50137  1.0000
  C   C38       1.0  0.94236  0.29973  0.49987  1.0000
  C   C39       1.0  0.88730  0.40034  0.49972  1.0000
  C   C40       1.0  0.72035  0.50319  0.49663  1.0000
  C   C41       1.0  0.77314  0.40095  0.50092  1.0000
  C   C42       1.0  0.94746  0.49858  0.49810  1.0000
  C   C43       1.0  0.89167  0.59884  0.49727  1.0000
  C   C44       1.0  0.72401  0.70115  0.49588  1.0000
  C   C45       1.0  0.77948  0.60058  0.49595  1.0000
  C   C46       1.0  0.94760  0.69811  0.49786  1.0000
  C   C47       1.0  0.89140  0.79866  0.49805  1.0000
  C   C48       1.0  0.72297  0.89993  0.49845  1.0000
  C   C49       1.0  0.77928  0.79996  0.49729  1.0000
  C   C50       1.0  0.94498  0.89883  0.49904  1.0000
  C   C51       1.0  0.38422  0.30315  0.50172  1.0000
  C   C52       1.0  0.44332  0.59750  0.49662  1.0000
  N   N1        1.0  0.21978  0.38850  0.49926  1.0000
  N   N2        1.0  0.23003  0.60237  0.49688  1.0000
  N   N3        1.0  0.60903  0.29551  0.51077  1.0000
  N   N4        1.0  0.61280  0.50903  0.49423  1.0000
  Fe  Fe1       1.0  0.33159  0.48150  0.49288  1.0000
  Sc  Sc1       1.0  0.49921  0.42497  0.54397  1.0000
