data_image0
_chemical_formula_structural       C54N2NiFe
_chemical_formula_sum              "C54 N2 Ni1 Fe1"
_cell_length_a       12.6617
_cell_length_b       12.5378
_cell_length_c       20.0118
_cell_angle_alpha    89.9943
_cell_angle_beta     90.0331
_cell_angle_gamma    89.8995

_space_group_name_H-M_alt    "P 1"
_space_group_IT_number       1

loop_
  _space_group_symop_operation_xyz
  'x, y, z'

loop_
  _atom_site_type_symbol
  _atom_site_label
  _atom_site_symmetry_multiplicity
  _atom_site_fract_x
  _atom_site_fract_y
  _atom_site_fract_z
  _atom_site_occupancy
  C   C1        1.0  0.22233  0.99811  0.50002  1.0000
  C   C2        1.0  0.05494  0.09910  0.49998  1.0000
  C   C3        1.0  0.11062  0.99897  0.50000  1.0000
  C   C4        1.0  0.27735  0.09737  0.50005  1.0000
  C   C5        1.0  0.22220  0.19649  0.50007  1.0000
  C   C6        1.0  0.05437  0.29857  0.49998  1.0000
  C   C7        1.0  0.11020  0.19853  0.50000  1.0000
  C   C8        1.0  0.27932  0.29542  0.50015  1.0000
  C   C9        1.0  0.05653  0.49827  0.49995  1.0000
  C   C10       1.0  0.11183  0.39728  0.49998  1.0000
  C   C11       1.0  0.05849  0.69809  0.50000  1.0000
  C   C12       1.0  0.11567  0.59758  0.49999  1.0000
  C   C13       1.0  0.27922  0.69986  0.50008  1.0000
  C   C14       1.0  0.22355  0.79907  0.50006  1.0000
  C   C15       1.0  0.05650  0.89892  0.50001  1.0000
  C   C16       1.0  0.11203  0.79863  0.50004  1.0000
  C   C17       1.0  0.27794  0.89898  0.50003  1.0000
  C   C18       1.0  0.55593  0.99921  0.49988  1.0000
  C   C19       1.0  0.38894  0.09767  0.50005  1.0000
  C   C20       1.0  0.44430  0.99835  0.49994  1.0000
  C   C21       1.0  0.61117  0.09828  0.49995  1.0000
  C   C22       1.0  0.55599  0.19639  0.50016  1.0000
  C   C23       1.0  0.44372  0.19738  0.50019  1.0000
  C   C24       1.0  0.55784  0.60689  0.50022  1.0000
  C   C25       1.0  0.39281  0.69881  0.50011  1.0000
  C   C26       1.0  0.61327  0.70480  0.50005  1.0000
  C   C27       1.0  0.55714  0.80237  0.49996  1.0000
  C   C28       1.0  0.38955  0.89893  0.49998  1.0000
  C   C29       1.0  0.44585  0.79977  0.50001  1.0000
  C   C30       1.0  0.61222  0.90119  0.49987  1.0000
  C   C31       1.0  0.88964  0.99989  0.49994  1.0000
  C   C32       1.0  0.72237  0.09950  0.49994  1.0000
  C   C33       1.0  0.77833  0.00030  0.49989  1.0000
  C   C34       1.0  0.94304  0.10018  0.49995  1.0000
  C   C35       1.0  0.88660  0.20049  0.49998  1.0000
  C   C36       1.0  0.71422  0.29967  0.50017  1.0000
  C   C37       1.0  0.77418  0.20078  0.50002  1.0000
  C   C38       1.0  0.94186  0.29985  0.49998  1.0000
  C   C39       1.0  0.88488  0.39965  0.50003  1.0000
  C   C40       1.0  0.71881  0.50401  0.50019  1.0000
  C   C41       1.0  0.77122  0.40036  0.50016  1.0000
  C   C42       1.0  0.94441  0.49890  0.49997  1.0000
  C   C43       1.0  0.88993  0.59992  0.49998  1.0000
  C   C44       1.0  0.72443  0.70241  0.50000  1.0000
  C   C45       1.0  0.77846  0.60187  0.50004  1.0000
  C   C46       1.0  0.94627  0.69915  0.49997  1.0000
  C   C47       1.0  0.89113  0.79973  0.49996  1.0000
  C   C48       1.0  0.72369  0.90080  0.49988  1.0000
  C   C49       1.0  0.77964  0.80120  0.49993  1.0000
  C   C50       1.0  0.94528  0.89979  0.49997  1.0000
  C   C51       1.0  0.22201  0.39341  0.50006  1.0000
  C   C52       1.0  0.22776  0.59984  0.50004  1.0000
  C   C53       1.0  0.39254  0.29877  0.50029  1.0000
  C   C54       1.0  0.44694  0.59887  0.50022  1.0000
  N   N1        1.0  0.60436  0.29480  0.50031  1.0000
  N   N2        1.0  0.61277  0.51110  0.50035  1.0000
  Ni  Ni1       1.0  0.32892  0.48770  0.50009  1.0000
  Fe  Fe1       1.0  0.50081  0.41335  0.50045  1.0000
