data_image0
_chemical_formula_structural       C50N6FeTi
_chemical_formula_sum              "C50 N6 Fe1 Ti1"
_cell_length_a       12.6977
_cell_length_b       12.5247
_cell_length_c       19.9768
_cell_angle_alpha    90.016
_cell_angle_beta     90.1609
_cell_angle_gamma    89.5369

_space_group_name_H-M_alt    "P 1"
_space_group_IT_number       1

loop_
  _space_group_symop_operation_xyz
  'x, y, z'

loop_
  _atom_site_type_symbol
  _atom_site_label
  _atom_site_symmetry_multiplicity
  _atom_site_fract_x
  _atom_site_fract_y
  _atom_site_fract_z
  _atom_site_occupancy
  C   C1        1.0  0.22157  0.99782  0.50250  1.0000
  C   C2        1.0  0.05416  0.09887  0.50103  1.0000
  C   C3        1.0  0.11000  0.99886  0.50150  1.0000
  C   C4        1.0  0.27685  0.09517  0.50413  1.0000
  C   C5        1.0  0.22111  0.19351  0.50413  1.0000
  C   C6        1.0  0.05643  0.29905  0.50064  1.0000
  C   C7        1.0  0.10960  0.19751  0.50168  1.0000
  C   C8        1.0  0.27821  0.28960  0.50483  1.0000
  C   C9        1.0  0.06431  0.49737  0.49828  1.0000
  C   C10       1.0  0.11835  0.39501  0.49910  1.0000
  C   C11       1.0  0.05942  0.69849  0.49881  1.0000
  C   C12       1.0  0.11984  0.59998  0.49816  1.0000
  C   C13       1.0  0.27926  0.70178  0.49883  1.0000
  C   C14       1.0  0.22388  0.80056  0.50064  1.0000
  C   C15       1.0  0.05611  0.89901  0.50044  1.0000
  C   C16       1.0  0.11216  0.79935  0.50020  1.0000
  C   C17       1.0  0.27809  0.89921  0.50145  1.0000
  C   C18       1.0  0.55579  0.99953  0.49991  1.0000
  C   C19       1.0  0.38863  0.09604  0.50373  1.0000
  C   C20       1.0  0.44482  0.99785  0.50120  1.0000
  C   C21       1.0  0.60982  0.09877  0.50139  1.0000
  C   C22       1.0  0.55432  0.19746  0.50500  1.0000
  C   C23       1.0  0.44193  0.19452  0.50635  1.0000
  C   C24       1.0  0.55623  0.60787  0.49237  1.0000
  C   C25       1.0  0.39180  0.70246  0.49637  1.0000
  C   C26       1.0  0.61264  0.70476  0.49433  1.0000
  C   C27       1.0  0.55700  0.80306  0.49609  1.0000
  C   C28       1.0  0.38916  0.89964  0.50045  1.0000
  C   C29       1.0  0.44524  0.80107  0.49786  1.0000
  C   C30       1.0  0.61211  0.90083  0.49767  1.0000
  C   C31       1.0  0.88889  0.99992  0.49936  1.0000
  C   C32       1.0  0.72151  0.10002  0.50051  1.0000
  C   C33       1.0  0.77741  0.00030  0.49901  1.0000
  C   C34       1.0  0.94222  0.10033  0.50008  1.0000
  C   C35       1.0  0.88679  0.20133  0.50037  1.0000
  C   C36       1.0  0.71338  0.30001  0.50311  1.0000
  C   C37       1.0  0.77393  0.20138  0.50122  1.0000
  C   C38       1.0  0.94292  0.30088  0.50040  1.0000
  C   C39       1.0  0.88645  0.40073  0.49969  1.0000
  C   C40       1.0  0.71772  0.50414  0.49710  1.0000
  C   C41       1.0  0.77051  0.40157  0.50028  1.0000
  C   C42       1.0  0.94838  0.49824  0.49846  1.0000
  C   C43       1.0  0.89187  0.59830  0.49764  1.0000
  C   C44       1.0  0.72437  0.70125  0.49566  1.0000
  C   C45       1.0  0.77866  0.60011  0.49636  1.0000
  C   C46       1.0  0.94698  0.69827  0.49816  1.0000
  C   C47       1.0  0.89132  0.79898  0.49818  1.0000
  C   C48       1.0  0.72360  0.90016  0.49767  1.0000
  C   C49       1.0  0.77941  0.80020  0.49704  1.0000
  C   C50       1.0  0.94465  0.89938  0.49927  1.0000
  N   N1        1.0  0.22874  0.38617  0.49828  1.0000
  N   N2        1.0  0.22820  0.60518  0.49797  1.0000
  N   N3        1.0  0.38651  0.29025  0.51052  1.0000
  N   N4        1.0  0.60394  0.29574  0.50743  1.0000
  N   N5        1.0  0.60803  0.51204  0.49522  1.0000
  N   N6        1.0  0.44654  0.60494  0.49034  1.0000
  Fe  Fe1       1.0  0.34019  0.49024  0.48520  1.0000
  Ti  Ti1       1.0  0.48435  0.42053  0.52884  1.0000
