data_image0
_chemical_formula_structural       C50N6NiFe
_chemical_formula_sum              "C50 N6 Ni1 Fe1"
_cell_length_a       12.6617
_cell_length_b       12.5058
_cell_length_c       20.0631
_cell_angle_alpha    90.0091
_cell_angle_beta     89.9879
_cell_angle_gamma    90.0051

_space_group_name_H-M_alt    "P 1"
_space_group_IT_number       1

loop_
  _space_group_symop_operation_xyz
  'x, y, z'

loop_
  _atom_site_type_symbol
  _atom_site_label
  _atom_site_symmetry_multiplicity
  _atom_site_fract_x
  _atom_site_fract_y
  _atom_site_fract_z
  _atom_site_occupancy
  C   C1        1.0  0.22072  0.99999  0.50001  1.0000
  C   C2        1.0  0.05521  0.10083  0.50002  1.0000
  C   C3        1.0  0.10921  0.99999  0.50000  1.0000
  C   C4        1.0  0.27627  0.09925  0.50002  1.0000
  C   C5        1.0  0.22386  0.20008  0.49998  1.0000
  C   C6        1.0  0.05596  0.30122  0.50002  1.0000
  C   C7        1.0  0.11120  0.20118  0.50001  1.0000
  C   C8        1.0  0.28407  0.29841  0.49987  1.0000
  C   C9        1.0  0.22834  0.39891  0.49990  1.0000
  C   C10       1.0  0.05643  0.49987  0.50002  1.0000
  C   C11       1.0  0.11442  0.40009  0.49999  1.0000
  C   C12       1.0  0.28731  0.49926  0.49984  1.0000
  C   C13       1.0  0.22860  0.60061  0.49998  1.0000
  C   C14       1.0  0.05588  0.69852  0.50002  1.0000
  C   C15       1.0  0.11456  0.59958  0.50002  1.0000
  C   C16       1.0  0.28375  0.70164  0.50000  1.0000
  C   C17       1.0  0.22365  0.79985  0.50000  1.0000
  C   C18       1.0  0.05516  0.89909  0.49999  1.0000
  C   C19       1.0  0.11100  0.79870  0.50000  1.0000
  C   C20       1.0  0.27619  0.90073  0.50001  1.0000
  C   C21       1.0  0.55477  0.00020  0.50006  1.0000
  C   C22       1.0  0.38790  0.09810  0.50002  1.0000
  C   C23       1.0  0.44366  0.00020  0.50006  1.0000
  C   C24       1.0  0.61054  0.09808  0.50002  1.0000
  C   C25       1.0  0.55556  0.19582  0.49989  1.0000
  C   C26       1.0  0.44293  0.19584  0.49988  1.0000
  C   C27       1.0  0.55549  0.80471  0.50001  1.0000
  C   C28       1.0  0.38782  0.90222  0.50003  1.0000
  C   C29       1.0  0.44283  0.80472  0.50001  1.0000
  C   C30       1.0  0.61056  0.90219  0.50003  1.0000
  C   C31       1.0  0.88920  0.99995  0.50000  1.0000
  C   C32       1.0  0.72217  0.09925  0.50002  1.0000
  C   C33       1.0  0.77769  0.99996  0.50001  1.0000
  C   C34       1.0  0.94323  0.10080  0.50002  1.0000
  C   C35       1.0  0.88731  0.20116  0.50002  1.0000
  C   C36       1.0  0.71450  0.29833  0.49988  1.0000
  C   C37       1.0  0.77467  0.20003  0.49998  1.0000
  C   C38       1.0  0.94261  0.30121  0.50002  1.0000
  C   C39       1.0  0.88410  0.40005  0.50000  1.0000
  C   C40       1.0  0.71113  0.49912  0.49983  1.0000
  C   C41       1.0  0.77018  0.39882  0.49990  1.0000
  C   C42       1.0  0.94204  0.49985  0.50002  1.0000
  C   C43       1.0  0.88378  0.59951  0.50002  1.0000
  C   C44       1.0  0.71456  0.70154  0.50001  1.0000
  C   C45       1.0  0.76973  0.60050  0.49999  1.0000
  C   C46       1.0  0.94241  0.69848  0.50002  1.0000
  C   C47       1.0  0.88734  0.79865  0.50000  1.0000
  C   C48       1.0  0.72220  0.90069  0.50001  1.0000
  C   C49       1.0  0.77468  0.79978  0.50001  1.0000
  C   C50       1.0  0.94322  0.89905  0.49999  1.0000
  N   N1        1.0  0.39323  0.29298  0.49975  1.0000
  N   N2        1.0  0.60535  0.29292  0.49976  1.0000
  N   N3        1.0  0.39231  0.50012  0.49963  1.0000
  N   N4        1.0  0.60614  0.50011  0.49959  1.0000
  N   N5        1.0  0.39309  0.70737  0.49999  1.0000
  N   N6        1.0  0.60521  0.70735  0.49999  1.0000
  Ni  Ni1       1.0  0.49928  0.39881  0.49957  1.0000
  Fe  Fe1       1.0  0.49920  0.59629  0.49974  1.0000
