data_image0
_chemical_formula_structural       C52N4FeSc
_chemical_formula_sum              "C52 N4 Fe1 Sc1"
_cell_length_a       12.7447
_cell_length_b       12.5198
_cell_length_c       19.9102
_cell_angle_alpha    90.0639
_cell_angle_beta     90.008
_cell_angle_gamma    90.0002

_space_group_name_H-M_alt    "P 1"
_space_group_IT_number       1

loop_
  _space_group_symop_operation_xyz
  'x, y, z'

loop_
  _atom_site_type_symbol
  _atom_site_label
  _atom_site_symmetry_multiplicity
  _atom_site_fract_x
  _atom_site_fract_y
  _atom_site_fract_z
  _atom_site_occupancy
  C   C1        1.0  0.22052  0.99983  0.50416  1.0000
  C   C2        1.0  0.05494  0.10051  0.50501  1.0000
  C   C3        1.0  0.10946  0.99974  0.50442  1.0000
  C   C4        1.0  0.27611  0.09916  0.50554  1.0000
  C   C5        1.0  0.22301  0.20008  0.50549  1.0000
  C   C6        1.0  0.05527  0.30071  0.50430  1.0000
  C   C7        1.0  0.11092  0.20056  0.50501  1.0000
  C   C8        1.0  0.28199  0.29923  0.50476  1.0000
  C   C9        1.0  0.22483  0.39956  0.50088  1.0000
  C   C10       1.0  0.05575  0.50072  0.50045  1.0000
  C   C11       1.0  0.11279  0.40069  0.50218  1.0000
  C   C12       1.0  0.28272  0.49947  0.49216  1.0000
  C   C13       1.0  0.22617  0.60057  0.49478  1.0000
  C   C14       1.0  0.05537  0.69902  0.50105  1.0000
  C   C15       1.0  0.11312  0.60005  0.49904  1.0000
  C   C16       1.0  0.28159  0.70218  0.49529  1.0000
  C   C17       1.0  0.22230  0.80040  0.50048  1.0000
  C   C18       1.0  0.05497  0.89931  0.50366  1.0000
  C   C19       1.0  0.11050  0.79930  0.50210  1.0000
  C   C20       1.0  0.27618  0.90049  0.50188  1.0000
  C   C21       1.0  0.55481  0.99876  0.50381  1.0000
  C   C22       1.0  0.38722  0.09680  0.50632  1.0000
  C   C23       1.0  0.44362  0.99876  0.50381  1.0000
  C   C24       1.0  0.61121  0.09680  0.50632  1.0000
  C   C25       1.0  0.55537  0.19362  0.50842  1.0000
  C   C26       1.0  0.44307  0.19362  0.50842  1.0000
  C   C27       1.0  0.55610  0.80269  0.49605  1.0000
  C   C28       1.0  0.38797  0.90107  0.50079  1.0000
  C   C29       1.0  0.44232  0.80269  0.49606  1.0000
  C   C30       1.0  0.61045  0.90107  0.50079  1.0000
  C   C31       1.0  0.88897  0.99974  0.50441  1.0000
  C   C32       1.0  0.72232  0.09916  0.50554  1.0000
  C   C33       1.0  0.77791  0.99983  0.50416  1.0000
  C   C34       1.0  0.94349  0.10051  0.50501  1.0000
  C   C35       1.0  0.88751  0.20056  0.50501  1.0000
  C   C36       1.0  0.71644  0.29923  0.50477  1.0000
  C   C37       1.0  0.77542  0.20009  0.50549  1.0000
  C   C38       1.0  0.94316  0.30071  0.50430  1.0000
  C   C39       1.0  0.88564  0.40069  0.50218  1.0000
  C   C40       1.0  0.71571  0.49947  0.49216  1.0000
  C   C41       1.0  0.77359  0.39955  0.50088  1.0000
  C   C42       1.0  0.94268  0.50072  0.50045  1.0000
  C   C43       1.0  0.88530  0.60005  0.49904  1.0000
  C   C44       1.0  0.71683  0.70217  0.49529  1.0000
  C   C45       1.0  0.77226  0.60057  0.49478  1.0000
  C   C46       1.0  0.94305  0.69902  0.50105  1.0000
  C   C47       1.0  0.88793  0.79930  0.50210  1.0000
  C   C48       1.0  0.72225  0.90049  0.50188  1.0000
  C   C49       1.0  0.77612  0.80040  0.50047  1.0000
  C   C50       1.0  0.94345  0.89931  0.50366  1.0000
  C   C51       1.0  0.39365  0.29475  0.50769  1.0000
  C   C52       1.0  0.60478  0.29475  0.50770  1.0000
  N   N1        1.0  0.38637  0.49796  0.48030  1.0000
  N   N2        1.0  0.61205  0.49796  0.48030  1.0000
  N   N3        1.0  0.38926  0.70723  0.49086  1.0000
  N   N4        1.0  0.60916  0.70723  0.49086  1.0000
  Fe  Fe1       1.0  0.49921  0.40621  0.49873  1.0000
  Sc  Sc1       1.0  0.49920  0.59748  0.44506  1.0000
