data_image0
_chemical_formula_structural       C54N2FeV
_chemical_formula_sum              "C54 N2 Fe1 V1"
_cell_length_a       13.0079
_cell_length_b       12.3365
_cell_length_c       19.7974
_cell_angle_alpha    90.1332
_cell_angle_beta     90.173
_cell_angle_gamma    90.2608

_space_group_name_H-M_alt    "P 1"
_space_group_IT_number       1

loop_
  _space_group_symop_operation_xyz
  'x, y, z'

loop_
  _atom_site_type_symbol
  _atom_site_label
  _atom_site_symmetry_multiplicity
  _atom_site_fract_x
  _atom_site_fract_y
  _atom_site_fract_z
  _atom_site_occupancy
  C   C1        1.0  0.22409  0.00082  0.49875  1.0000
  C   C2        1.0  0.05626  0.09975  0.50165  1.0000
  C   C3        1.0  0.11224  0.00031  0.50027  1.0000
  C   C4        1.0  0.27942  0.10239  0.49781  1.0000
  C   C5        1.0  0.22208  0.20267  0.49618  1.0000
  C   C6        1.0  0.05309  0.29925  0.50346  1.0000
  C   C7        1.0  0.11116  0.20053  0.50049  1.0000
  C   C8        1.0  0.21270  0.40066  0.49243  1.0000
  C   C9        1.0  0.05032  0.50051  0.50528  1.0000
  C   C10       1.0  0.10476  0.40041  0.50178  1.0000
  C   C11       1.0  0.26481  0.50185  0.48346  1.0000
  C   C12       1.0  0.21209  0.60239  0.49280  1.0000
  C   C13       1.0  0.05220  0.70136  0.50375  1.0000
  C   C14       1.0  0.10441  0.60106  0.50251  1.0000
  C   C15       1.0  0.22231  0.79797  0.49527  1.0000
  C   C16       1.0  0.05602  0.90029  0.50149  1.0000
  C   C17       1.0  0.11085  0.79986  0.50049  1.0000
  C   C18       1.0  0.27865  0.89980  0.49676  1.0000
  C   C19       1.0  0.55631  0.99984  0.50033  1.0000
  C   C20       1.0  0.39130  0.10420  0.49874  1.0000
  C   C21       1.0  0.44543  0.00185  0.49958  1.0000
  C   C22       1.0  0.61329  0.09931  0.50200  1.0000
  C   C23       1.0  0.55869  0.19952  0.50202  1.0000
  C   C24       1.0  0.61622  0.30031  0.50445  1.0000
  C   C25       1.0  0.61177  0.49475  0.50654  1.0000
  C   C26       1.0  0.61185  0.69557  0.50301  1.0000
  C   C27       1.0  0.55553  0.79950  0.49929  1.0000
  C   C28       1.0  0.39011  0.90014  0.49764  1.0000
  C   C29       1.0  0.61210  0.89971  0.49996  1.0000
  C   C30       1.0  0.88973  0.99936  0.50289  1.0000
  C   C31       1.0  0.72357  0.09850  0.50322  1.0000
  C   C32       1.0  0.77883  0.99896  0.50259  1.0000
  C   C33       1.0  0.94552  0.09912  0.50332  1.0000
  C   C34       1.0  0.88915  0.19846  0.50527  1.0000
  C   C35       1.0  0.72518  0.29854  0.50679  1.0000
  C   C36       1.0  0.77943  0.19808  0.50536  1.0000
  C   C37       1.0  0.94339  0.29890  0.50637  1.0000
  C   C38       1.0  0.88842  0.39899  0.50845  1.0000
  C   C39       1.0  0.72264  0.49776  0.50873  1.0000
  C   C40       1.0  0.77905  0.39882  0.50862  1.0000
  C   C41       1.0  0.94176  0.49999  0.50837  1.0000
  C   C42       1.0  0.88692  0.60009  0.50812  1.0000
  C   C43       1.0  0.72237  0.69888  0.50448  1.0000
  C   C44       1.0  0.77685  0.59903  0.50787  1.0000
  C   C45       1.0  0.94203  0.70046  0.50595  1.0000
  C   C46       1.0  0.88775  0.80028  0.50417  1.0000
  C   C47       1.0  0.72243  0.89954  0.50162  1.0000
  C   C48       1.0  0.77754  0.79943  0.50321  1.0000
  C   C49       1.0  0.94506  0.89984  0.50284  1.0000
  C   C50       1.0  0.27245  0.30490  0.48919  1.0000
  C   C51       1.0  0.27312  0.69606  0.48734  1.0000
  C   C52       1.0  0.44912  0.20354  0.49939  1.0000
  C   C53       1.0  0.55722  0.59528  0.50442  1.0000
  C   C54       1.0  0.44630  0.80137  0.49591  1.0000
  N   N1        1.0  0.56173  0.39500  0.50312  1.0000
  N   N2        1.0  0.36388  0.50507  0.46540  1.0000
  Fe  Fe1       1.0  0.41200  0.35443  0.48703  1.0000
  V   V1        1.0  0.42691  0.64960  0.46172  1.0000
