data_image0
_chemical_formula_structural       C54N2FeTi
_chemical_formula_sum              "C54 N2 Fe1 Ti1"
_cell_length_a       12.8007
_cell_length_b       12.4586
_cell_length_c       19.9209
_cell_angle_alpha    90.2875
_cell_angle_beta     89.8063
_cell_angle_gamma    90.1847

_space_group_name_H-M_alt    "P 1"
_space_group_IT_number       1

loop_
  _space_group_symop_operation_xyz
  'x, y, z'

loop_
  _atom_site_type_symbol
  _atom_site_label
  _atom_site_symmetry_multiplicity
  _atom_site_fract_x
  _atom_site_fract_y
  _atom_site_fract_z
  _atom_site_occupancy
  C   C1        1.0  0.22042  0.00051  0.50449  1.0000
  C   C2        1.0  0.05491  0.10061  0.50466  1.0000
  C   C3        1.0  0.10950  0.00017  0.50485  1.0000
  C   C4        1.0  0.27679  0.09994  0.50471  1.0000
  C   C5        1.0  0.22359  0.20056  0.50398  1.0000
  C   C6        1.0  0.05583  0.30028  0.50254  1.0000
  C   C7        1.0  0.11155  0.20049  0.50383  1.0000
  C   C8        1.0  0.28277  0.30010  0.50230  1.0000
  C   C9        1.0  0.22484  0.39985  0.49970  1.0000
  C   C10       1.0  0.05657  0.50016  0.49988  1.0000
  C   C11       1.0  0.11317  0.40034  0.50089  1.0000
  C   C12       1.0  0.28058  0.50063  0.49315  1.0000
  C   C13       1.0  0.22444  0.60136  0.49555  1.0000
  C   C14       1.0  0.05542  0.69970  0.50185  1.0000
  C   C15       1.0  0.11253  0.60047  0.49926  1.0000
  C   C16       1.0  0.27917  0.70272  0.49725  1.0000
  C   C17       1.0  0.22141  0.80113  0.50171  1.0000
  C   C18       1.0  0.05451  0.89968  0.50440  1.0000
  C   C19       1.0  0.11010  0.80002  0.50303  1.0000
  C   C20       1.0  0.27576  0.90121  0.50259  1.0000
  C   C21       1.0  0.55490  0.99772  0.50174  1.0000
  C   C22       1.0  0.38798  0.09781  0.50447  1.0000
  C   C23       1.0  0.44385  0.99903  0.50251  1.0000
  C   C24       1.0  0.61118  0.09718  0.50321  1.0000
  C   C25       1.0  0.55610  0.19577  0.50362  1.0000
  C   C26       1.0  0.44390  0.19551  0.50428  1.0000
  C   C27       1.0  0.55369  0.79766  0.49681  1.0000
  C   C28       1.0  0.38707  0.90127  0.50076  1.0000
  C   C29       1.0  0.44054  0.80238  0.49733  1.0000
  C   C30       1.0  0.60969  0.89816  0.49939  1.0000
  C   C31       1.0  0.88824  0.99935  0.50430  1.0000
  C   C32       1.0  0.72216  0.09863  0.50309  1.0000
  C   C33       1.0  0.77728  0.99875  0.50332  1.0000
  C   C34       1.0  0.94337  0.10022  0.50423  1.0000
  C   C35       1.0  0.88769  0.20004  0.50292  1.0000
  C   C36       1.0  0.71746  0.29925  0.50096  1.0000
  C   C37       1.0  0.77579  0.19972  0.50250  1.0000
  C   C38       1.0  0.94412  0.29996  0.50203  1.0000
  C   C39       1.0  0.88745  0.39977  0.50025  1.0000
  C   C40       1.0  0.72022  0.50003  0.49522  1.0000
  C   C41       1.0  0.77587  0.39916  0.49892  1.0000
  C   C42       1.0  0.94457  0.49970  0.50014  1.0000
  C   C43       1.0  0.88826  0.59928  0.50081  1.0000
  C   C44       1.0  0.71922  0.69834  0.50009  1.0000
  C   C45       1.0  0.77717  0.59935  0.49890  1.0000
  C   C46       1.0  0.94405  0.69941  0.50252  1.0000
  C   C47       1.0  0.88789  0.79900  0.50351  1.0000
  C   C48       1.0  0.72122  0.89841  0.50177  1.0000
  C   C49       1.0  0.77607  0.79855  0.50239  1.0000
  C   C50       1.0  0.94325  0.89920  0.50435  1.0000
  C   C51       1.0  0.39412  0.29662  0.50372  1.0000
  C   C52       1.0  0.60602  0.29789  0.50236  1.0000
  C   C53       1.0  0.61180  0.49971  0.48641  1.0000
  C   C54       1.0  0.60854  0.69705  0.49638  1.0000
  N   N1        1.0  0.38493  0.50069  0.48465  1.0000
  N   N2        1.0  0.38652  0.70703  0.49385  1.0000
  Fe  Fe1       1.0  0.49747  0.41453  0.50000  1.0000
  Ti  Ti1       1.0  0.49085  0.60047  0.45312  1.0000
