data_image0
_chemical_formula_structural       C49N6FeZn
_chemical_formula_sum              "C49 N6 Fe1 Zn1"
_cell_length_a       12.81
_cell_length_b       12.4
_cell_length_c       20
_cell_angle_alpha    90
_cell_angle_beta     90
_cell_angle_gamma    90

_space_group_name_H-M_alt    "P 1"
_space_group_IT_number       1

loop_
  _space_group_symop_operation_xyz
  'x, y, z'

loop_
  _atom_site_type_symbol
  _atom_site_label
  _atom_site_symmetry_multiplicity
  _atom_site_fract_x
  _atom_site_fract_y
  _atom_site_fract_z
  _atom_site_occupancy
  C   C1        1.0  0.22097  0.99983  0.50114  1.0000
  C   C2        1.0  0.05250  0.10102  0.50144  1.0000
  C   C3        1.0  0.10935  0.00091  0.50089  1.0000
  C   C4        1.0  0.27489  0.09984  0.50182  1.0000
  C   C5        1.0  0.21813  0.19965  0.50218  1.0000
  C   C6        1.0  0.05238  0.30110  0.50211  1.0000
  C   C7        1.0  0.10695  0.20073  0.50205  1.0000
  C   C8        1.0  0.27266  0.29833  0.50172  1.0000
  C   C9        1.0  0.21907  0.40041  0.50036  1.0000
  C   C10       1.0  0.05577  0.50163  0.50128  1.0000
  C   C11       1.0  0.10883  0.40040  0.50155  1.0000
  C   C12       1.0  0.22672  0.59549  0.49808  1.0000
  C   C13       1.0  0.05822  0.70088  0.50004  1.0000
  C   C14       1.0  0.11463  0.60020  0.49999  1.0000
  C   C15       1.0  0.28401  0.69828  0.49813  1.0000
  C   C16       1.0  0.22428  0.79842  0.49935  1.0000
  C   C17       1.0  0.05550  0.90103  0.50017  1.0000
  C   C18       1.0  0.11259  0.80049  0.49966  1.0000
  C   C19       1.0  0.27788  0.89935  0.50024  1.0000
  C   C20       1.0  0.55374  0.00201  0.50006  1.0000
  C   C21       1.0  0.38609  0.10130  0.50100  1.0000
  C   C22       1.0  0.44278  0.00111  0.50066  1.0000
  C   C23       1.0  0.60692  0.10414  0.49811  1.0000
  C   C24       1.0  0.55030  0.20527  0.49557  1.0000
  C   C25       1.0  0.43849  0.20402  0.49888  1.0000
  C   C26       1.0  0.60523  0.30821  0.49114  1.0000
  C   C27       1.0  0.55719  0.79745  0.50141  1.0000
  C   C28       1.0  0.38917  0.89941  0.50042  1.0000
  C   C29       1.0  0.44262  0.79589  0.49966  1.0000
  C   C30       1.0  0.60935  0.90067  0.50104  1.0000
  C   C31       1.0  0.88667  0.00268  0.50030  1.0000
  C   C32       1.0  0.71862  0.10516  0.49860  1.0000
  C   C33       1.0  0.77490  0.00403  0.49979  1.0000
  C   C34       1.0  0.94088  0.10279  0.50096  1.0000
  C   C35       1.0  0.88491  0.20372  0.50114  1.0000
  C   C36       1.0  0.71770  0.30874  0.49827  1.0000
  C   C37       1.0  0.77289  0.20653  0.49949  1.0000
  C   C38       1.0  0.94104  0.30296  0.50183  1.0000
  C   C39       1.0  0.88738  0.40424  0.50245  1.0000
  C   C40       1.0  0.77569  0.40877  0.50274  1.0000
  C   C41       1.0  0.94503  0.50309  0.50246  1.0000
  C   C42       1.0  0.89082  0.60412  0.50247  1.0000
  C   C43       1.0  0.72245  0.70435  0.50364  1.0000
  C   C44       1.0  0.78053  0.60344  0.50465  1.0000
  C   C45       1.0  0.94662  0.70284  0.50100  1.0000
  C   C46       1.0  0.88986  0.80252  0.50105  1.0000
  C   C47       1.0  0.72115  0.90316  0.50089  1.0000
  C   C48       1.0  0.77821  0.80336  0.50201  1.0000
  C   C49       1.0  0.94376  0.90266  0.50035  1.0000
  N   N1        1.0  0.27705  0.49561  0.49658  1.0000
  N   N2        1.0  0.38072  0.29861  0.50035  1.0000
  N   N3        1.0  0.54875  0.39843  0.47848  1.0000
  N   N4        1.0  0.39080  0.69990  0.49769  1.0000
  N   N5        1.0  0.61420  0.70272  0.50284  1.0000
  N   N6        1.0  0.72712  0.50775  0.50704  1.0000
  Fe  Fe1       1.0  0.41832  0.44223  0.48438  1.0000
  Zn  Zn1       1.0  0.57723  0.54799  0.50713  1.0000
