data_image0
_chemical_formula_structural       C54N4FeTi
_chemical_formula_sum              "C54 N4 Fe1 Ti1"
_cell_length_a       12.8993
_cell_length_b       12.3605
_cell_length_c       19.9282
_cell_angle_alpha    90.8421
_cell_angle_beta     89.977
_cell_angle_gamma    90.5788

_space_group_name_H-M_alt    "P 1"
_space_group_IT_number       1

loop_
  _space_group_symop_operation_xyz
  'x, y, z'

loop_
  _atom_site_type_symbol
  _atom_site_label
  _atom_site_symmetry_multiplicity
  _atom_site_fract_x
  _atom_site_fract_y
  _atom_site_fract_z
  _atom_site_occupancy
  C   C1        1.0  0.22094  0.00291  0.49587  1.0000
  C   C2        1.0  0.05553  0.10195  0.49310  1.0000
  C   C3        1.0  0.10982  0.00214  0.49348  1.0000
  C   C4        1.0  0.27753  0.10339  0.49794  1.0000
  C   C5        1.0  0.22383  0.20514  0.49988  1.0000
  C   C6        1.0  0.05602  0.30151  0.49435  1.0000
  C   C7        1.0  0.11215  0.20265  0.49572  1.0000
  C   C8        1.0  0.28024  0.30662  0.50666  1.0000
  C   C9        1.0  0.22074  0.40696  0.50711  1.0000
  C   C10       1.0  0.05388  0.50167  0.49562  1.0000
  C   C11       1.0  0.11055  0.40262  0.49773  1.0000
  C   C12       1.0  0.21743  0.60236  0.50738  1.0000
  C   C13       1.0  0.05292  0.70204  0.49297  1.0000
  C   C14       1.0  0.10826  0.60279  0.49711  1.0000
  C   C15       1.0  0.27274  0.70437  0.50758  1.0000
  C   C16       1.0  0.21838  0.80251  0.49810  1.0000
  C   C17       1.0  0.05352  0.90197  0.49183  1.0000
  C   C18       1.0  0.10806  0.80221  0.49337  1.0000
  C   C19       1.0  0.27515  0.90277  0.49798  1.0000
  C   C20       1.0  0.55416  0.99777  0.49827  1.0000
  C   C21       1.0  0.38835  0.10101  0.49811  1.0000
  C   C22       1.0  0.44312  0.00047  0.49807  1.0000
  C   C23       1.0  0.61065  0.09814  0.49635  1.0000
  C   C24       1.0  0.55624  0.19839  0.49861  1.0000
  C   C25       1.0  0.39359  0.30208  0.50873  1.0000
  C   C26       1.0  0.44535  0.20058  0.50068  1.0000
  C   C27       1.0  0.61273  0.29829  0.49876  1.0000
  C   C28       1.0  0.55755  0.39678  0.50861  1.0000
  C   C29       1.0  0.61422  0.49795  0.50773  1.0000
  C   C30       1.0  0.61118  0.69496  0.50694  1.0000
  C   C31       1.0  0.55109  0.79475  0.50656  1.0000
  C   C32       1.0  0.38610  0.90123  0.50012  1.0000
  C   C33       1.0  0.43803  0.80007  0.50789  1.0000
  C   C34       1.0  0.60793  0.89664  0.50018  1.0000
  C   C35       1.0  0.88741  0.00020  0.49149  1.0000
  C   C36       1.0  0.72154  0.09875  0.49395  1.0000
  C   C37       1.0  0.77597  0.99894  0.49332  1.0000
  C   C38       1.0  0.94407  0.10058  0.49156  1.0000
  C   C39       1.0  0.88885  0.19994  0.49146  1.0000
  C   C40       1.0  0.72315  0.29853  0.49404  1.0000
  C   C41       1.0  0.77789  0.19888  0.49242  1.0000
  C   C42       1.0  0.94485  0.30038  0.49186  1.0000
  C   C43       1.0  0.88913  0.39964  0.49201  1.0000
  C   C44       1.0  0.72309  0.49776  0.49760  1.0000
  C   C45       1.0  0.77857  0.39849  0.49349  1.0000
  C   C46       1.0  0.94372  0.50049  0.49277  1.0000
  C   C47       1.0  0.88766  0.60008  0.49273  1.0000
  C   C48       1.0  0.72128  0.69851  0.49770  1.0000
  C   C49       1.0  0.77747  0.59907  0.49576  1.0000
  C   C50       1.0  0.94225  0.70091  0.49167  1.0000
  C   C51       1.0  0.88666  0.80032  0.49154  1.0000
  C   C52       1.0  0.71932  0.89845  0.49595  1.0000
  C   C53       1.0  0.77566  0.79940  0.49427  1.0000
  C   C54       1.0  0.94258  0.90084  0.49106  1.0000
  N   N1        1.0  0.26814  0.50641  0.51841  1.0000
  N   N2        1.0  0.45231  0.39463  0.52020  1.0000
  N   N3        1.0  0.56430  0.59550  0.51861  1.0000
  N   N4        1.0  0.37857  0.70813  0.51901  1.0000
  Fe  Fe1       1.0  0.37953  0.48846  0.58363  1.0000
  Ti  Ti1       1.0  0.45357  0.62077  0.58796  1.0000
