data_image0
_chemical_formula_structural       C52N4FeTi
_chemical_formula_sum              "C52 N4 Fe1 Ti1"
_cell_length_a       13.0339
_cell_length_b       12.2724
_cell_length_c       19.8612
_cell_angle_alpha    89.7824
_cell_angle_beta     89.9192
_cell_angle_gamma    90.2262

_space_group_name_H-M_alt    "P 1"
_space_group_IT_number       1

loop_
  _space_group_symop_operation_xyz
  'x, y, z'

loop_
  _atom_site_type_symbol
  _atom_site_label
  _atom_site_symmetry_multiplicity
  _atom_site_fract_x
  _atom_site_fract_y
  _atom_site_fract_z
  _atom_site_occupancy
  C   C1        1.0  0.22502  0.00155  0.50295  1.0000
  C   C2        1.0  0.05705  0.10058  0.50119  1.0000
  C   C3        1.0  0.11347  0.00119  0.50218  1.0000
  C   C4        1.0  0.28021  0.10427  0.50404  1.0000
  C   C5        1.0  0.22193  0.20524  0.50625  1.0000
  C   C6        1.0  0.05269  0.29990  0.50038  1.0000
  C   C7        1.0  0.11115  0.20168  0.50274  1.0000
  C   C8        1.0  0.21250  0.40073  0.50989  1.0000
  C   C9        1.0  0.05054  0.50087  0.49883  1.0000
  C   C10       1.0  0.10516  0.40098  0.50202  1.0000
  C   C11       1.0  0.26667  0.50267  0.51977  1.0000
  C   C12       1.0  0.21201  0.60248  0.50906  1.0000
  C   C13       1.0  0.05196  0.70180  0.49940  1.0000
  C   C14       1.0  0.10413  0.60107  0.50036  1.0000
  C   C15       1.0  0.22027  0.79907  0.50547  1.0000
  C   C16       1.0  0.05646  0.90143  0.50100  1.0000
  C   C17       1.0  0.10999  0.80097  0.50242  1.0000
  C   C18       1.0  0.27955  0.89802  0.50282  1.0000
  C   C19       1.0  0.55672  0.99833  0.49812  1.0000
  C   C20       1.0  0.39255  0.10343  0.50200  1.0000
  C   C21       1.0  0.44617  0.99879  0.49988  1.0000
  C   C22       1.0  0.61400  0.09811  0.49748  1.0000
  C   C23       1.0  0.56025  0.19794  0.49746  1.0000
  C   C24       1.0  0.61556  0.30042  0.49509  1.0000
  C   C25       1.0  0.61120  0.50034  0.49191  1.0000
  C   C26       1.0  0.61502  0.69727  0.49239  1.0000
  C   C27       1.0  0.55770  0.79816  0.49484  1.0000
  C   C28       1.0  0.39185  0.89459  0.50002  1.0000
  C   C29       1.0  0.61304  0.89845  0.49665  1.0000
  C   C30       1.0  0.89043  0.00020  0.49835  1.0000
  C   C31       1.0  0.72431  0.09872  0.49700  1.0000
  C   C32       1.0  0.77988  0.99953  0.49739  1.0000
  C   C33       1.0  0.94630  0.10010  0.49904  1.0000
  C   C34       1.0  0.88942  0.19904  0.49748  1.0000
  C   C35       1.0  0.72456  0.29920  0.49482  1.0000
  C   C36       1.0  0.77960  0.19875  0.49633  1.0000
  C   C37       1.0  0.94325  0.29975  0.49744  1.0000
  C   C38       1.0  0.88767  0.39990  0.49553  1.0000
  C   C39       1.0  0.72232  0.49974  0.49270  1.0000
  C   C40       1.0  0.77816  0.39992  0.49410  1.0000
  C   C41       1.0  0.94179  0.50034  0.49582  1.0000
  C   C42       1.0  0.88762  0.60040  0.49487  1.0000
  C   C43       1.0  0.72395  0.69965  0.49375  1.0000
  C   C44       1.0  0.77824  0.59955  0.49330  1.0000
  C   C45       1.0  0.94269  0.70118  0.49676  1.0000
  C   C46       1.0  0.88873  0.80130  0.49708  1.0000
  C   C47       1.0  0.72356  0.89981  0.49662  1.0000
  C   C48       1.0  0.77887  0.80063  0.49582  1.0000
  C   C49       1.0  0.94578  0.90078  0.49880  1.0000
  C   C50       1.0  0.45144  0.20169  0.50076  1.0000
  C   C51       1.0  0.55723  0.39864  0.49467  1.0000
  C   C52       1.0  0.44825  0.79395  0.49594  1.0000
  N   N1        1.0  0.26956  0.30648  0.51158  1.0000
  N   N2        1.0  0.26829  0.69873  0.50967  1.0000
  N   N3        1.0  0.36911  0.50312  0.53728  1.0000
  N   N4        1.0  0.56043  0.60091  0.48956  1.0000
  Fe  Fe1       1.0  0.41391  0.35551  0.50975  1.0000
  Ti  Ti1       1.0  0.40022  0.62705  0.48111  1.0000
