data_image0
_chemical_formula_structural       C49N6FeSc
_chemical_formula_sum              "C49 N6 Fe1 Sc1"
_cell_length_a       12.8277
_cell_length_b       12.3135
_cell_length_c       20.1178
_cell_angle_alpha    90.063
_cell_angle_beta     90.0352
_cell_angle_gamma    88.7173

_space_group_name_H-M_alt    "P 1"
_space_group_IT_number       1

loop_
  _space_group_symop_operation_xyz
  'x, y, z'

loop_
  _atom_site_type_symbol
  _atom_site_label
  _atom_site_symmetry_multiplicity
  _atom_site_fract_x
  _atom_site_fract_y
  _atom_site_fract_z
  _atom_site_occupancy
  C   C1        1.0  0.22171  0.99759  0.50010  1.0000
  C   C2        1.0  0.05252  0.10027  0.50276  1.0000
  C   C3        1.0  0.11023  0.99957  0.50227  1.0000
  C   C4        1.0  0.27490  0.09763  0.49697  1.0000
  C   C5        1.0  0.21708  0.19740  0.49716  1.0000
  C   C6        1.0  0.05152  0.30090  0.50196  1.0000
  C   C7        1.0  0.10639  0.19958  0.50105  1.0000
  C   C8        1.0  0.27176  0.29502  0.49171  1.0000
  C   C9        1.0  0.21863  0.39821  0.49371  1.0000
  C   C10       1.0  0.05587  0.50125  0.50276  1.0000
  C   C11       1.0  0.10863  0.39921  0.50003  1.0000
  C   C12       1.0  0.22887  0.59358  0.49758  1.0000
  C   C13       1.0  0.05966  0.69982  0.50437  1.0000
  C   C14       1.0  0.11610  0.59884  0.50216  1.0000
  C   C15       1.0  0.28860  0.69418  0.50095  1.0000
  C   C16       1.0  0.22761  0.79515  0.50161  1.0000
  C   C17       1.0  0.05733  0.89982  0.50354  1.0000
  C   C18       1.0  0.11516  0.79838  0.50308  1.0000
  C   C19       1.0  0.27951  0.89704  0.50032  1.0000
  C   C20       1.0  0.55443  0.00379  0.49733  1.0000
  C   C21       1.0  0.38586  0.09947  0.49432  1.0000
  C   C22       1.0  0.44375  0.99982  0.49660  1.0000
  C   C23       1.0  0.60711  0.10587  0.49560  1.0000
  C   C24       1.0  0.54970  0.20663  0.48945  1.0000
  C   C25       1.0  0.43718  0.20185  0.48862  1.0000
  C   C26       1.0  0.60360  0.30980  0.48935  1.0000
  C   C27       1.0  0.55956  0.80141  0.50194  1.0000
  C   C28       1.0  0.39086  0.89787  0.49901  1.0000
  C   C29       1.0  0.44640  0.79572  0.50142  1.0000
  C   C30       1.0  0.61118  0.90343  0.50062  1.0000
  C   C31       1.0  0.88770  0.00321  0.50365  1.0000
  C   C32       1.0  0.71869  0.10685  0.49957  1.0000
  C   C33       1.0  0.77599  0.00538  0.50191  1.0000
  C   C34       1.0  0.94109  0.10303  0.50368  1.0000
  C   C35       1.0  0.88438  0.20461  0.50377  1.0000
  C   C36       1.0  0.71575  0.31055  0.50096  1.0000
  C   C37       1.0  0.77228  0.20806  0.50187  1.0000
  C   C38       1.0  0.93985  0.30366  0.50383  1.0000
  C   C39       1.0  0.88529  0.40573  0.50548  1.0000
  C   C40       1.0  0.77257  0.41149  0.50662  1.0000
  C   C41       1.0  0.94474  0.50320  0.50597  1.0000
  C   C42       1.0  0.89042  0.60465  0.50745  1.0000
  C   C43       1.0  0.72436  0.70696  0.50652  1.0000
  C   C44       1.0  0.77969  0.60499  0.50978  1.0000
  C   C45       1.0  0.94763  0.70246  0.50609  1.0000
  C   C46       1.0  0.89150  0.80318  0.50561  1.0000
  C   C47       1.0  0.72277  0.90525  0.50228  1.0000
  C   C48       1.0  0.78019  0.80498  0.50508  1.0000
  C   C49       1.0  0.94554  0.90258  0.50444  1.0000
  N   N1        1.0  0.27720  0.49219  0.48914  1.0000
  N   N2        1.0  0.37777  0.29473  0.48410  1.0000
  N   N3        1.0  0.55197  0.40541  0.47991  1.0000
  N   N4        1.0  0.39815  0.69533  0.50374  1.0000
  N   N5        1.0  0.61707  0.70622  0.50404  1.0000
  N   N6        1.0  0.72184  0.51143  0.51277  1.0000
  Fe  Fe1       1.0  0.41537  0.44129  0.46044  1.0000
  Sc  Sc1       1.0  0.54897  0.55339  0.52160  1.0000
