data_image0
_chemical_formula_structural       C54N4FeSc
_chemical_formula_sum              "C54 N4 Fe1 Sc1"
_cell_length_a       12.899
_cell_length_b       12.3598
_cell_length_c       19.9331
_cell_angle_alpha    91.3195
_cell_angle_beta     90.2152
_cell_angle_gamma    90.5568

_space_group_name_H-M_alt    "P 1"
_space_group_IT_number       1

loop_
  _space_group_symop_operation_xyz
  'x, y, z'

loop_
  _atom_site_type_symbol
  _atom_site_label
  _atom_site_symmetry_multiplicity
  _atom_site_fract_x
  _atom_site_fract_y
  _atom_site_fract_z
  _atom_site_occupancy
  C   C1        1.0  0.22094  0.00291  0.49478  1.0000
  C   C2        1.0  0.05553  0.10198  0.49261  1.0000
  C   C3        1.0  0.10989  0.00215  0.49279  1.0000
  C   C4        1.0  0.27757  0.10341  0.49666  1.0000
  C   C5        1.0  0.22382  0.20506  0.49884  1.0000
  C   C6        1.0  0.05605  0.30162  0.49426  1.0000
  C   C7        1.0  0.11225  0.20270  0.49518  1.0000
  C   C8        1.0  0.28044  0.30686  0.50558  1.0000
  C   C9        1.0  0.22076  0.40708  0.50705  1.0000
  C   C10       1.0  0.05407  0.50193  0.49621  1.0000
  C   C11       1.0  0.11062  0.40269  0.49782  1.0000
  C   C12       1.0  0.21796  0.60269  0.50858  1.0000
  C   C13       1.0  0.05307  0.70208  0.49333  1.0000
  C   C14       1.0  0.10871  0.60298  0.49804  1.0000
  C   C15       1.0  0.27365  0.70473  0.50788  1.0000
  C   C16       1.0  0.21857  0.80255  0.49786  1.0000
  C   C17       1.0  0.05353  0.90193  0.49150  1.0000
  C   C18       1.0  0.10819  0.80223  0.49336  1.0000
  C   C19       1.0  0.27525  0.90274  0.49694  1.0000
  C   C20       1.0  0.55428  0.99796  0.49743  1.0000
  C   C21       1.0  0.38844  0.10103  0.49675  1.0000
  C   C22       1.0  0.44319  0.00053  0.49682  1.0000
  C   C23       1.0  0.61080  0.09841  0.49593  1.0000
  C   C24       1.0  0.55639  0.19871  0.49836  1.0000
  C   C25       1.0  0.39374  0.30209  0.50788  1.0000
  C   C26       1.0  0.44544  0.20061  0.49968  1.0000
  C   C27       1.0  0.61278  0.29879  0.49942  1.0000
  C   C28       1.0  0.55750  0.39743  0.50936  1.0000
  C   C29       1.0  0.61396  0.49900  0.50802  1.0000
  C   C30       1.0  0.61105  0.69492  0.50616  1.0000
  C   C31       1.0  0.55121  0.79506  0.50590  1.0000
  C   C32       1.0  0.38619  0.90131  0.49880  1.0000
  C   C33       1.0  0.43800  0.80005  0.50681  1.0000
  C   C34       1.0  0.60802  0.89682  0.49954  1.0000
  C   C35       1.0  0.88745  0.00029  0.49129  1.0000
  C   C36       1.0  0.72166  0.09897  0.49386  1.0000
  C   C37       1.0  0.77607  0.99909  0.49308  1.0000
  C   C38       1.0  0.94414  0.10065  0.49138  1.0000
  C   C39       1.0  0.88892  0.20009  0.49162  1.0000
  C   C40       1.0  0.72324  0.29880  0.49471  1.0000
  C   C41       1.0  0.77801  0.19911  0.49270  1.0000
  C   C42       1.0  0.94493  0.30050  0.49216  1.0000
  C   C43       1.0  0.88921  0.39984  0.49250  1.0000
  C   C44       1.0  0.72301  0.49808  0.49790  1.0000
  C   C45       1.0  0.77865  0.39874  0.49416  1.0000
  C   C46       1.0  0.94391  0.50066  0.49319  1.0000
  C   C47       1.0  0.88773  0.60023  0.49283  1.0000
  C   C48       1.0  0.72126  0.69866  0.49707  1.0000
  C   C49       1.0  0.77750  0.59921  0.49559  1.0000
  C   C50       1.0  0.94240  0.70093  0.49170  1.0000
  C   C51       1.0  0.88669  0.80037  0.49136  1.0000
  C   C52       1.0  0.71940  0.89863  0.49550  1.0000
  C   C53       1.0  0.77573  0.79946  0.49385  1.0000
  C   C54       1.0  0.94264  0.90086  0.49085  1.0000
  N   N1        1.0  0.26858  0.50657  0.51987  1.0000
  N   N2        1.0  0.45208  0.39507  0.52064  1.0000
  N   N3        1.0  0.56371  0.59634  0.51782  1.0000
  N   N4        1.0  0.37941  0.70834  0.51811  1.0000
  Fe  Fe1       1.0  0.37086  0.47238  0.58887  1.0000
  Sc  Sc1       1.0  0.45644  0.62682  0.59515  1.0000
