data_image0
_chemical_formula_structural       C52N4ZnFe
_chemical_formula_sum              "C52 N4 Zn1 Fe1"
_cell_length_a       13.0317
_cell_length_b       12.3238
_cell_length_c       19.7817
_cell_angle_alpha    90.0147
_cell_angle_beta     89.9356
_cell_angle_gamma    90.2295

_space_group_name_H-M_alt    "P 1"
_space_group_IT_number       1

loop_
  _space_group_symop_operation_xyz
  'x, y, z'

loop_
  _atom_site_type_symbol
  _atom_site_label
  _atom_site_symmetry_multiplicity
  _atom_site_fract_x
  _atom_site_fract_y
  _atom_site_fract_z
  _atom_site_occupancy
  C   C1        1.0  0.22644  0.00244  0.49867  1.0000
  C   C2        1.0  0.05678  0.09991  0.50202  1.0000
  C   C3        1.0  0.11406  0.00108  0.50056  1.0000
  C   C4        1.0  0.28231  0.10558  0.49802  1.0000
  C   C5        1.0  0.22175  0.20548  0.49785  1.0000
  C   C6        1.0  0.05156  0.29895  0.50224  1.0000
  C   C7        1.0  0.11044  0.20095  0.50062  1.0000
  C   C8        1.0  0.20996  0.39823  0.49062  1.0000
  C   C9        1.0  0.04890  0.50031  0.50094  1.0000
  C   C10       1.0  0.10275  0.40011  0.49845  1.0000
  C   C11       1.0  0.26311  0.50038  0.47884  1.0000
  C   C12       1.0  0.20984  0.60116  0.48931  1.0000
  C   C13       1.0  0.05223  0.70195  0.50139  1.0000
  C   C14       1.0  0.10321  0.60103  0.49827  1.0000
  C   C15       1.0  0.22223  0.79869  0.49475  1.0000
  C   C16       1.0  0.05739  0.90113  0.50153  1.0000
  C   C17       1.0  0.11137  0.80036  0.49937  1.0000
  C   C18       1.0  0.27972  0.89980  0.49681  1.0000
  C   C19       1.0  0.55761  0.99738  0.50154  1.0000
  C   C20       1.0  0.39528  0.10209  0.49762  1.0000
  C   C21       1.0  0.44708  0.99815  0.49963  1.0000
  C   C22       1.0  0.61411  0.09691  0.50348  1.0000
  C   C23       1.0  0.55806  0.19526  0.50187  1.0000
  C   C24       1.0  0.61335  0.30032  0.50528  1.0000
  C   C25       1.0  0.61182  0.50056  0.50564  1.0000
  C   C26       1.0  0.61505  0.69631  0.50322  1.0000
  C   C27       1.0  0.55783  0.79807  0.50100  1.0000
  C   C28       1.0  0.39160  0.89661  0.49807  1.0000
  C   C29       1.0  0.61370  0.89791  0.50225  1.0000
  C   C30       1.0  0.89060  0.99963  0.50441  1.0000
  C   C31       1.0  0.72422  0.09808  0.50496  1.0000
  C   C32       1.0  0.77985  0.99909  0.50474  1.0000
  C   C33       1.0  0.94591  0.09950  0.50408  1.0000
  C   C34       1.0  0.88863  0.19842  0.50536  1.0000
  C   C35       1.0  0.72335  0.29813  0.50613  1.0000
  C   C36       1.0  0.77888  0.19835  0.50560  1.0000
  C   C37       1.0  0.94198  0.29900  0.50530  1.0000
  C   C38       1.0  0.88675  0.39901  0.50658  1.0000
  C   C39       1.0  0.72247  0.49969  0.50713  1.0000
  C   C40       1.0  0.77705  0.39894  0.50734  1.0000
  C   C41       1.0  0.94097  0.49976  0.50545  1.0000
  C   C42       1.0  0.88760  0.60050  0.50629  1.0000
  C   C43       1.0  0.72428  0.69943  0.50562  1.0000
  C   C44       1.0  0.77851  0.59952  0.50687  1.0000
  C   C45       1.0  0.94286  0.70109  0.50468  1.0000
  C   C46       1.0  0.88908  0.80103  0.50482  1.0000
  C   C47       1.0  0.72389  0.89945  0.50414  1.0000
  C   C48       1.0  0.77919  0.80024  0.50511  1.0000
  C   C49       1.0  0.94641  0.90056  0.50370  1.0000
  C   C50       1.0  0.27183  0.69575  0.48664  1.0000
  C   C51       1.0  0.55873  0.39900  0.50745  1.0000
  C   C52       1.0  0.44826  0.79707  0.49787  1.0000
  N   N1        1.0  0.26670  0.30654  0.49409  1.0000
  N   N2        1.0  0.45397  0.19505  0.49604  1.0000
  N   N3        1.0  0.35981  0.50620  0.45932  1.0000
  N   N4        1.0  0.56090  0.60080  0.50201  1.0000
  Zn  Zn1       1.0  0.41525  0.36030  0.48910  1.0000
  Fe  Fe1       1.0  0.41301  0.64763  0.47929  1.0000
