data_image0
_chemical_formula_structural       C50N6FeCr
_chemical_formula_sum              "C50 N6 Fe1 Cr1"
_cell_length_a       12.6979
_cell_length_b       12.5615
_cell_length_c       19.9177
_cell_angle_alpha    89.9981
_cell_angle_beta     90.0397
_cell_angle_gamma    89.6418

_space_group_name_H-M_alt    "P 1"
_space_group_IT_number       1

loop_
  _space_group_symop_operation_xyz
  'x, y, z'

loop_
  _atom_site_type_symbol
  _atom_site_label
  _atom_site_symmetry_multiplicity
  _atom_site_fract_x
  _atom_site_fract_y
  _atom_site_fract_z
  _atom_site_occupancy
  C   C1        1.0  0.22150  0.99866  0.50120  1.0000
  C   C2        1.0  0.05465  0.09912  0.50083  1.0000
  C   C3        1.0  0.11004  0.99940  0.50110  1.0000
  C   C4        1.0  0.27693  0.09597  0.50143  1.0000
  C   C5        1.0  0.22136  0.19417  0.50132  1.0000
  C   C6        1.0  0.05655  0.29952  0.50044  1.0000
  C   C7        1.0  0.10987  0.19796  0.50076  1.0000
  C   C8        1.0  0.27880  0.29035  0.50145  1.0000
  C   C9        1.0  0.06385  0.49813  0.49918  1.0000
  C   C10       1.0  0.11812  0.39566  0.49961  1.0000
  C   C11       1.0  0.05828  0.69955  0.50044  1.0000
  C   C12       1.0  0.11824  0.60144  0.49879  1.0000
  C   C13       1.0  0.27816  0.70465  0.49790  1.0000
  C   C14       1.0  0.22304  0.80235  0.50014  1.0000
  C   C15       1.0  0.05568  0.89963  0.50101  1.0000
  C   C16       1.0  0.11130  0.80040  0.50071  1.0000
  C   C17       1.0  0.27780  0.90053  0.50059  1.0000
  C   C18       1.0  0.55599  0.99867  0.50001  1.0000
  C   C19       1.0  0.38878  0.09594  0.50133  1.0000
  C   C20       1.0  0.44490  0.99801  0.50033  1.0000
  C   C21       1.0  0.61063  0.09715  0.50111  1.0000
  C   C22       1.0  0.55552  0.19502  0.50300  1.0000
  C   C23       1.0  0.44236  0.19409  0.50255  1.0000
  C   C24       1.0  0.55404  0.60794  0.49688  1.0000
  C   C25       1.0  0.39102  0.70398  0.49687  1.0000
  C   C26       1.0  0.61160  0.70450  0.49781  1.0000
  C   C27       1.0  0.55665  0.80293  0.49802  1.0000
  C   C28       1.0  0.38888  0.90035  0.49969  1.0000
  C   C29       1.0  0.44484  0.80213  0.49809  1.0000
  C   C30       1.0  0.61214  0.90034  0.49911  1.0000
  C   C31       1.0  0.88914  0.99984  0.50049  1.0000
  C   C32       1.0  0.72247  0.09911  0.50083  1.0000
  C   C33       1.0  0.77781  0.99976  0.50025  1.0000
  C   C34       1.0  0.94293  0.10002  0.50059  1.0000
  C   C35       1.0  0.88808  0.20072  0.50061  1.0000
  C   C36       1.0  0.71648  0.29826  0.50247  1.0000
  C   C37       1.0  0.77587  0.19992  0.50111  1.0000
  C   C38       1.0  0.94330  0.30100  0.50059  1.0000
  C   C39       1.0  0.88654  0.40091  0.50060  1.0000
  C   C40       1.0  0.71675  0.50418  0.49993  1.0000
  C   C41       1.0  0.77081  0.40144  0.50130  1.0000
  C   C42       1.0  0.94803  0.49865  0.49994  1.0000
  C   C43       1.0  0.89111  0.59851  0.50004  1.0000
  C   C44       1.0  0.72348  0.70109  0.49901  1.0000
  C   C45       1.0  0.77787  0.60009  0.49951  1.0000
  C   C46       1.0  0.94602  0.69874  0.50051  1.0000
  C   C47       1.0  0.89067  0.79920  0.50042  1.0000
  C   C48       1.0  0.72353  0.89980  0.49962  1.0000
  C   C49       1.0  0.77880  0.80002  0.49965  1.0000
  C   C50       1.0  0.94432  0.89949  0.50070  1.0000
  N   N1        1.0  0.22852  0.38720  0.49904  1.0000
  N   N2        1.0  0.22633  0.60860  0.49600  1.0000
  N   N3        1.0  0.38691  0.28963  0.50363  1.0000
  N   N4        1.0  0.60833  0.29143  0.50504  1.0000
  N   N5        1.0  0.60688  0.51273  0.49907  1.0000
  N   N6        1.0  0.44434  0.60647  0.49484  1.0000
  Fe  Fe1       1.0  0.33097  0.49792  0.48797  1.0000
  Cr  Cr1       1.0  0.49846  0.40232  0.50703  1.0000
