data_image0
_chemical_formula_structural       C49N7FeV
_chemical_formula_sum              "C49 N7 Fe1 V1"
_cell_length_a       13.0175
_cell_length_b       12.2659
_cell_length_c       19.8964
_cell_angle_alpha    89.9823
_cell_angle_beta     89.9993
_cell_angle_gamma    90.1382

_space_group_name_H-M_alt    "P 1"
_space_group_IT_number       1

loop_
  _space_group_symop_operation_xyz
  'x, y, z'

loop_
  _atom_site_type_symbol
  _atom_site_label
  _atom_site_symmetry_multiplicity
  _atom_site_fract_x
  _atom_site_fract_y
  _atom_site_fract_z
  _atom_site_occupancy
  C   C1        1.0  0.22783  0.00087  0.49956  1.0000
  C   C2        1.0  0.05831  0.10015  0.50145  1.0000
  C   C3        1.0  0.11565  0.00052  0.50057  1.0000
  C   C4        1.0  0.28270  0.10529  0.49992  1.0000
  C   C5        1.0  0.22318  0.20615  0.50062  1.0000
  C   C6        1.0  0.05118  0.29885  0.50296  1.0000
  C   C7        1.0  0.11166  0.20139  0.50174  1.0000
  C   C8        1.0  0.20948  0.40035  0.50018  1.0000
  C   C9        1.0  0.04798  0.50014  0.50337  1.0000
  C   C10       1.0  0.10221  0.40007  0.50272  1.0000
  C   C11       1.0  0.26265  0.50002  0.49551  1.0000
  C   C12       1.0  0.20963  0.60058  0.49679  1.0000
  C   C13       1.0  0.05089  0.70138  0.50156  1.0000
  C   C14       1.0  0.10237  0.60036  0.50156  1.0000
  C   C15       1.0  0.22182  0.79570  0.49662  1.0000
  C   C16       1.0  0.05799  0.90089  0.50107  1.0000
  C   C17       1.0  0.11101  0.79966  0.50014  1.0000
  C   C18       1.0  0.28201  0.89641  0.49770  1.0000
  C   C19       1.0  0.55814  0.99975  0.50089  1.0000
  C   C20       1.0  0.39489  0.10489  0.49961  1.0000
  C   C21       1.0  0.44772  0.00085  0.50005  1.0000
  C   C22       1.0  0.61438  0.09961  0.50101  1.0000
  C   C23       1.0  0.55894  0.19906  0.49989  1.0000
  C   C24       1.0  0.61396  0.30115  0.50004  1.0000
  C   C25       1.0  0.60983  0.49784  0.49924  1.0000
  C   C26       1.0  0.61354  0.69739  0.49982  1.0000
  C   C27       1.0  0.55797  0.80025  0.49981  1.0000
  C   C28       1.0  0.39444  0.89710  0.49830  1.0000
  C   C29       1.0  0.61415  0.89981  0.50137  1.0000
  C   C30       1.0  0.89102  0.00004  0.50190  1.0000
  C   C31       1.0  0.72454  0.09913  0.50158  1.0000
  C   C32       1.0  0.78053  0.99982  0.50193  1.0000
  C   C33       1.0  0.94691  0.09984  0.50188  1.0000
  C   C34       1.0  0.88897  0.19857  0.50228  1.0000
  C   C35       1.0  0.72270  0.29873  0.50136  1.0000
  C   C36       1.0  0.77896  0.19869  0.50175  1.0000
  C   C37       1.0  0.94213  0.29898  0.50313  1.0000
  C   C38       1.0  0.88592  0.39922  0.50341  1.0000
  C   C39       1.0  0.72068  0.49890  0.50174  1.0000
  C   C40       1.0  0.77683  0.39935  0.50236  1.0000
  C   C41       1.0  0.93956  0.49994  0.50377  1.0000
  C   C42       1.0  0.88540  0.60032  0.50316  1.0000
  C   C43       1.0  0.72215  0.70043  0.50192  1.0000
  C   C44       1.0  0.77621  0.59949  0.50232  1.0000
  C   C45       1.0  0.94187  0.70087  0.50268  1.0000
  C   C46       1.0  0.88873  0.80130  0.50244  1.0000
  C   C47       1.0  0.72436  0.90030  0.50204  1.0000
  C   C48       1.0  0.77869  0.80080  0.50240  1.0000
  C   C49       1.0  0.94663  0.90043  0.50193  1.0000
  N   N1        1.0  0.27026  0.30755  0.49976  1.0000
  N   N2        1.0  0.26847  0.69465  0.49138  1.0000
  N   N3        1.0  0.45240  0.20134  0.49865  1.0000
  N   N4        1.0  0.55734  0.39851  0.49900  1.0000
  N   N5        1.0  0.36654  0.49676  0.48896  1.0000
  N   N6        1.0  0.55919  0.59791  0.49587  1.0000
  N   N7        1.0  0.45136  0.80118  0.49669  1.0000
  Fe  Fe1       1.0  0.41140  0.35307  0.49758  1.0000
  V   V1        1.0  0.41419  0.64226  0.47202  1.0000
