data_image0
_chemical_formula_structural       C53N5NiFe
_chemical_formula_sum              "C53 N5 Ni1 Fe1"
_cell_length_a       12.81
_cell_length_b       12.4
_cell_length_c       20
_cell_angle_alpha    90
_cell_angle_beta     90
_cell_angle_gamma    90

_space_group_name_H-M_alt    "P 1"
_space_group_IT_number       1

loop_
  _space_group_symop_operation_xyz
  'x, y, z'

loop_
  _atom_site_type_symbol
  _atom_site_label
  _atom_site_symmetry_multiplicity
  _atom_site_fract_x
  _atom_site_fract_y
  _atom_site_fract_z
  _atom_site_occupancy
  C   C1        1.0  0.22199  0.00057  0.49222  1.0000
  C   C2        1.0  0.05690  0.10071  0.48675  1.0000
  C   C3        1.0  0.11079  0.00015  0.48893  1.0000
  C   C4        1.0  0.27751  0.10158  0.49242  1.0000
  C   C5        1.0  0.22422  0.20356  0.49551  1.0000
  C   C6        1.0  0.05612  0.30076  0.49083  1.0000
  C   C7        1.0  0.11244  0.20149  0.49078  1.0000
  C   C8        1.0  0.28059  0.30400  0.50467  1.0000
  C   C9        1.0  0.22071  0.40461  0.50830  1.0000
  C   C10       1.0  0.05291  0.50078  0.49796  1.0000
  C   C11       1.0  0.10992  0.40137  0.49772  1.0000
  C   C12       1.0  0.21762  0.59998  0.51448  1.0000
  C   C13       1.0  0.05247  0.70004  0.49654  1.0000
  C   C14       1.0  0.10793  0.60073  0.50194  1.0000
  C   C15       1.0  0.27332  0.70204  0.51715  1.0000
  C   C16       1.0  0.22002  0.79990  0.50182  1.0000
  C   C17       1.0  0.05476  0.89992  0.48908  1.0000
  C   C18       1.0  0.10891  0.79975  0.49461  1.0000
  C   C19       1.0  0.27644  0.90066  0.49806  1.0000
  C   C20       1.0  0.55453  0.99894  0.48748  1.0000
  C   C21       1.0  0.38823  0.09982  0.48992  1.0000
  C   C22       1.0  0.44357  0.99994  0.49034  1.0000
  C   C23       1.0  0.61122  0.09744  0.48266  1.0000
  C   C24       1.0  0.55599  0.19623  0.48677  1.0000
  C   C25       1.0  0.39392  0.29859  0.50553  1.0000
  C   C26       1.0  0.44521  0.19847  0.49194  1.0000
  C   C27       1.0  0.61351  0.29358  0.49133  1.0000
  C   C28       1.0  0.56044  0.38755  0.51082  1.0000
  C   C29       1.0  0.38157  0.71406  0.53940  1.0000
  C   C30       1.0  0.55593  0.80333  0.51066  1.0000
  C   C31       1.0  0.38828  0.90100  0.49990  1.0000
  C   C32       1.0  0.44373  0.80506  0.51569  1.0000
  C   C33       1.0  0.61021  0.90035  0.49391  1.0000
  C   C34       1.0  0.88912  0.99930  0.48352  1.0000
  C   C35       1.0  0.72245  0.09821  0.48110  1.0000
  C   C36       1.0  0.77768  0.99870  0.48333  1.0000
  C   C37       1.0  0.94548  0.09955  0.48311  1.0000
  C   C38       1.0  0.89012  0.19926  0.48268  1.0000
  C   C39       1.0  0.72378  0.29652  0.48737  1.0000
  C   C40       1.0  0.77894  0.19784  0.48161  1.0000
  C   C41       1.0  0.94480  0.29993  0.48662  1.0000
  C   C42       1.0  0.88839  0.39939  0.49047  1.0000
  C   C43       1.0  0.71930  0.49275  0.50759  1.0000
  C   C44       1.0  0.77745  0.39720  0.49321  1.0000
  C   C45       1.0  0.94142  0.50018  0.49533  1.0000
  C   C46       1.0  0.88330  0.59919  0.49874  1.0000
  C   C47       1.0  0.71793  0.70267  0.50778  1.0000
  C   C48       1.0  0.77096  0.59808  0.50626  1.0000
  C   C49       1.0  0.94075  0.69889  0.49525  1.0000
  C   C50       1.0  0.88696  0.79919  0.49158  1.0000
  C   C51       1.0  0.72124  0.89973  0.49020  1.0000
  C   C52       1.0  0.77584  0.79962  0.49531  1.0000
  C   C53       1.0  0.94342  0.89906  0.48705  1.0000
  N   N1        1.0  0.26716  0.50167  0.52272  1.0000
  N   N2        1.0  0.45477  0.38660  0.52138  1.0000
  N   N3        1.0  0.61499  0.48102  0.52369  1.0000
  N   N4        1.0  0.41952  0.64523  0.58402  1.0000
  N   N5        1.0  0.61291  0.71049  0.52135  1.0000
  Ni  Ni1       1.0  0.40055  0.50874  0.55937  1.0000
  Fe  Fe1       1.0  0.55388  0.59529  0.57486  1.0000
