data_image0
_chemical_formula_structural       C50N6FeZn
_chemical_formula_sum              "C50 N6 Fe1 Zn1"
_cell_length_a       12.81
_cell_length_b       12.4
_cell_length_c       20
_cell_angle_alpha    90
_cell_angle_beta     90
_cell_angle_gamma    90

_space_group_name_H-M_alt    "P 1"
_space_group_IT_number       1

loop_
  _space_group_symop_operation_xyz
  'x, y, z'

loop_
  _atom_site_type_symbol
  _atom_site_label
  _atom_site_symmetry_multiplicity
  _atom_site_fract_x
  _atom_site_fract_y
  _atom_site_fract_z
  _atom_site_occupancy
  C   C1        1.0  0.22045  0.00025  0.50002  1.0000
  C   C2        1.0  0.05497  0.10062  0.50002  1.0000
  C   C3        1.0  0.10944  0.00010  0.50000  1.0000
  C   C4        1.0  0.27644  0.09926  0.50003  1.0000
  C   C5        1.0  0.22316  0.19957  0.49998  1.0000
  C   C6        1.0  0.05539  0.30030  0.50001  1.0000
  C   C7        1.0  0.11108  0.20058  0.50001  1.0000
  C   C8        1.0  0.28263  0.29778  0.49987  1.0000
  C   C9        1.0  0.22562  0.39785  0.49991  1.0000
  C   C10       1.0  0.05592  0.49974  0.50002  1.0000
  C   C11       1.0  0.11307  0.39935  0.50000  1.0000
  C   C12       1.0  0.28434  0.49789  0.49982  1.0000
  C   C13       1.0  0.22720  0.60059  0.49999  1.0000
  C   C14       1.0  0.05547  0.69883  0.50002  1.0000
  C   C15       1.0  0.11409  0.59970  0.50003  1.0000
  C   C16       1.0  0.28167  0.70297  0.50001  1.0000
  C   C17       1.0  0.22193  0.80090  0.50001  1.0000
  C   C18       1.0  0.05474  0.89966  0.49999  1.0000
  C   C19       1.0  0.11028  0.79941  0.50000  1.0000
  C   C20       1.0  0.27609  0.90116  0.50001  1.0000
  C   C21       1.0  0.55452  0.00059  0.50007  1.0000
  C   C22       1.0  0.38772  0.09836  0.50005  1.0000
  C   C23       1.0  0.44390  0.00062  0.50007  1.0000
  C   C24       1.0  0.61072  0.09832  0.50005  1.0000
  C   C25       1.0  0.55558  0.19584  0.49993  1.0000
  C   C26       1.0  0.44291  0.19585  0.49992  1.0000
  C   C27       1.0  0.55658  0.80496  0.50002  1.0000
  C   C28       1.0  0.38752  0.90313  0.50003  1.0000
  C   C29       1.0  0.44176  0.80500  0.50002  1.0000
  C   C30       1.0  0.61086  0.90306  0.50003  1.0000
  C   C31       1.0  0.88895  0.00008  0.50000  1.0000
  C   C32       1.0  0.72201  0.09920  0.50003  1.0000
  C   C33       1.0  0.77794  0.00019  0.50001  1.0000
  C   C34       1.0  0.94349  0.10057  0.50002  1.0000
  C   C35       1.0  0.88742  0.20054  0.50002  1.0000
  C   C36       1.0  0.71587  0.29769  0.49989  1.0000
  C   C37       1.0  0.77531  0.19948  0.49999  1.0000
  C   C38       1.0  0.94315  0.30026  0.50002  1.0000
  C   C39       1.0  0.88546  0.39929  0.50001  1.0000
  C   C40       1.0  0.71416  0.49776  0.49983  1.0000
  C   C41       1.0  0.77291  0.39773  0.49993  1.0000
  C   C42       1.0  0.94251  0.49973  0.50003  1.0000
  C   C43       1.0  0.88428  0.59966  0.50003  1.0000
  C   C44       1.0  0.71667  0.70287  0.50001  1.0000
  C   C45       1.0  0.77119  0.60051  0.50000  1.0000
  C   C46       1.0  0.94288  0.69880  0.50002  1.0000
  C   C47       1.0  0.88803  0.79936  0.50000  1.0000
  C   C48       1.0  0.72228  0.90110  0.50001  1.0000
  C   C49       1.0  0.77639  0.80082  0.50001  1.0000
  C   C50       1.0  0.94358  0.89961  0.49999  1.0000
  N   N1        1.0  0.39156  0.29290  0.49976  1.0000
  N   N2        1.0  0.60697  0.29287  0.49978  1.0000
  N   N3        1.0  0.38746  0.49377  0.49949  1.0000
  N   N4        1.0  0.61105  0.49368  0.49948  1.0000
  N   N5        1.0  0.38878  0.71076  0.50000  1.0000
  N   N6        1.0  0.60954  0.71070  0.50002  1.0000
  Fe  Fe1       1.0  0.49926  0.40099  0.49941  1.0000
  Zn  Zn1       1.0  0.49923  0.59938  0.49976  1.0000
