data_image0
_chemical_formula_structural       C52N4Fe2
_chemical_formula_sum              "C52 N4 Fe2"
_cell_length_a       12.726
_cell_length_b       12.4685
_cell_length_c       20.0213
_cell_angle_alpha    90.0184
_cell_angle_beta     89.989
_cell_angle_gamma    89.9687

_space_group_name_H-M_alt    "P 1"
_space_group_IT_number       1

loop_
  _space_group_symop_operation_xyz
  'x, y, z'

loop_
  _atom_site_type_symbol
  _atom_site_label
  _atom_site_symmetry_multiplicity
  _atom_site_fract_x
  _atom_site_fract_y
  _atom_site_fract_z
  _atom_site_occupancy
  C   C1        1.0  0.22066  0.99952  0.50002  1.0000
  C   C2        1.0  0.05508  0.10046  0.50002  1.0000
  C   C3        1.0  0.10942  0.99964  0.50001  1.0000
  C   C4        1.0  0.27618  0.09883  0.50000  1.0000
  C   C5        1.0  0.22348  0.19958  0.49997  1.0000
  C   C6        1.0  0.05605  0.30044  0.50002  1.0000
  C   C7        1.0  0.11124  0.20042  0.50001  1.0000
  C   C8        1.0  0.28332  0.29790  0.49989  1.0000
  C   C9        1.0  0.22675  0.39884  0.49990  1.0000
  C   C10       1.0  0.05701  0.50030  0.50001  1.0000
  C   C11       1.0  0.11391  0.39986  0.49999  1.0000
  C   C12       1.0  0.28249  0.50057  0.49983  1.0000
  C   C13       1.0  0.22653  0.60149  0.49995  1.0000
  C   C14       1.0  0.05572  0.69940  0.50002  1.0000
  C   C15       1.0  0.11366  0.60038  0.50001  1.0000
  C   C16       1.0  0.28355  0.70161  0.49997  1.0000
  C   C17       1.0  0.22377  0.79993  0.50001  1.0000
  C   C18       1.0  0.05491  0.89902  0.50000  1.0000
  C   C19       1.0  0.11123  0.79917  0.50001  1.0000
  C   C20       1.0  0.27675  0.90033  0.50003  1.0000
  C   C21       1.0  0.55467  0.99956  0.50004  1.0000
  C   C22       1.0  0.38738  0.09776  0.50000  1.0000
  C   C23       1.0  0.44410  0.99943  0.50004  1.0000
  C   C24       1.0  0.60999  0.09894  0.50001  1.0000
  C   C25       1.0  0.55415  0.19727  0.49991  1.0000
  C   C26       1.0  0.44201  0.19544  0.49991  1.0000
  C   C27       1.0  0.55546  0.80196  0.50000  1.0000
  C   C28       1.0  0.38835  0.90093  0.50005  1.0000
  C   C29       1.0  0.44326  0.80284  0.50002  1.0000
  C   C30       1.0  0.61028  0.90047  0.50004  1.0000
  C   C31       1.0  0.88849  0.99983  0.50001  1.0000
  C   C32       1.0  0.72150  0.10000  0.50001  1.0000
  C   C33       1.0  0.77714  0.00010  0.50002  1.0000
  C   C34       1.0  0.94325  0.10056  0.50002  1.0000
  C   C35       1.0  0.88751  0.20070  0.50002  1.0000
  C   C36       1.0  0.71658  0.30008  0.49990  1.0000
  C   C37       1.0  0.77498  0.20075  0.49999  1.0000
  C   C38       1.0  0.94380  0.30047  0.50003  1.0000
  C   C39       1.0  0.88714  0.40036  0.50000  1.0000
  C   C40       1.0  0.71823  0.49969  0.49984  1.0000
  C   C41       1.0  0.77499  0.39977  0.49990  1.0000
  C   C42       1.0  0.94365  0.50046  0.50002  1.0000
  C   C43       1.0  0.88595  0.60026  0.50001  1.0000
  C   C44       1.0  0.71491  0.70086  0.49997  1.0000
  C   C45       1.0  0.77275  0.60057  0.49995  1.0000
  C   C46       1.0  0.94321  0.69936  0.50002  1.0000
  C   C47       1.0  0.88706  0.79891  0.50001  1.0000
  C   C48       1.0  0.72176  0.90035  0.50002  1.0000
  C   C49       1.0  0.77442  0.79938  0.50001  1.0000
  C   C50       1.0  0.94293  0.89900  0.50000  1.0000
  C   C51       1.0  0.60432  0.29967  0.49981  1.0000
  C   C52       1.0  0.60848  0.49615  0.49970  1.0000
  N   N1        1.0  0.39194  0.29329  0.49983  1.0000
  N   N2        1.0  0.38694  0.50073  0.49962  1.0000
  N   N3        1.0  0.39257  0.70512  0.49994  1.0000
  N   N4        1.0  0.60534  0.70273  0.49992  1.0000
  Fe  Fe1       1.0  0.49650  0.41046  0.49947  1.0000
  Fe  Fe2       1.0  0.49667  0.59067  0.49975  1.0000
