data_image0
_chemical_formula_structural       C54N4Fe2
_chemical_formula_sum              "C54 N4 Fe2"
_cell_length_a       12.8884
_cell_length_b       12.2966
_cell_length_c       20.0851
_cell_angle_alpha    93.2163
_cell_angle_beta     91.3181
_cell_angle_gamma    90.8563

_space_group_name_H-M_alt    "P 1"
_space_group_IT_number       1

loop_
  _space_group_symop_operation_xyz
  'x, y, z'

loop_
  _atom_site_type_symbol
  _atom_site_label
  _atom_site_symmetry_multiplicity
  _atom_site_fract_x
  _atom_site_fract_y
  _atom_site_fract_z
  _atom_site_occupancy
  C   C1        1.0  0.22284  0.00291  0.49736  1.0000
  C   C2        1.0  0.05783  0.10157  0.49517  1.0000
  C   C3        1.0  0.11180  0.00172  0.49566  1.0000
  C   C4        1.0  0.27995  0.10361  0.49838  1.0000
  C   C5        1.0  0.22692  0.20582  0.49838  1.0000
  C   C6        1.0  0.05941  0.30171  0.49595  1.0000
  C   C7        1.0  0.11531  0.20263  0.49632  1.0000
  C   C8        1.0  0.28422  0.30856  0.50075  1.0000
  C   C9        1.0  0.22637  0.40921  0.50050  1.0000
  C   C10       1.0  0.05570  0.50119  0.49667  1.0000
  C   C11       1.0  0.11453  0.40349  0.49727  1.0000
  C   C12       1.0  0.21770  0.60380  0.49982  1.0000
  C   C13       1.0  0.05337  0.70206  0.49581  1.0000
  C   C14       1.0  0.10883  0.60283  0.49705  1.0000
  C   C15       1.0  0.27332  0.70454  0.50061  1.0000
  C   C16       1.0  0.21925  0.80306  0.49798  1.0000
  C   C17       1.0  0.05435  0.90152  0.49515  1.0000
  C   C18       1.0  0.10881  0.80216  0.49595  1.0000
  C   C19       1.0  0.27688  0.90241  0.49870  1.0000
  C   C20       1.0  0.55542  0.99539  0.50001  1.0000
  C   C21       1.0  0.39066  0.10064  0.49938  1.0000
  C   C22       1.0  0.44473  0.99842  0.50001  1.0000
  C   C23       1.0  0.61245  0.09587  0.49874  1.0000
  C   C24       1.0  0.55846  0.19650  0.49912  1.0000
  C   C25       1.0  0.39651  0.30547  0.50176  1.0000
  C   C26       1.0  0.44789  0.20122  0.49988  1.0000
  C   C27       1.0  0.61603  0.29573  0.49833  1.0000
  C   C28       1.0  0.56212  0.39473  0.50058  1.0000
  C   C29       1.0  0.61770  0.49538  0.50052  1.0000
  C   C30       1.0  0.60913  0.69016  0.50225  1.0000
  C   C31       1.0  0.55132  0.79091  0.50276  1.0000
  C   C32       1.0  0.38752  0.89793  0.50046  1.0000
  C   C33       1.0  0.43904  0.79412  0.50308  1.0000
  C   C34       1.0  0.60849  0.89323  0.50056  1.0000
  C   C35       1.0  0.88866  0.99892  0.49515  1.0000
  C   C36       1.0  0.72338  0.09678  0.49711  1.0000
  C   C37       1.0  0.77729  0.99684  0.49670  1.0000
  C   C38       1.0  0.94640  0.09928  0.49470  1.0000
  C   C39       1.0  0.89157  0.19866  0.49500  1.0000
  C   C40       1.0  0.72632  0.29627  0.49658  1.0000
  C   C41       1.0  0.78075  0.19679  0.49595  1.0000
  C   C42       1.0  0.94811  0.29943  0.49520  1.0000
  C   C43       1.0  0.89182  0.39823  0.49561  1.0000
  C   C44       1.0  0.72637  0.49587  0.49780  1.0000
  C   C45       1.0  0.78171  0.39638  0.49626  1.0000
  C   C46       1.0  0.94575  0.49951  0.49596  1.0000
  C   C47       1.0  0.88934  0.59896  0.49631  1.0000
  C   C48       1.0  0.72071  0.69528  0.49890  1.0000
  C   C49       1.0  0.77948  0.59744  0.49764  1.0000
  C   C50       1.0  0.94323  0.70013  0.49576  1.0000
  C   C51       1.0  0.88692  0.79887  0.49589  1.0000
  C   C52       1.0  0.71996  0.89602  0.49834  1.0000
  C   C53       1.0  0.77575  0.79679  0.49757  1.0000
  C   C54       1.0  0.94345  0.89955  0.49507  1.0000
  N   N1        1.0  0.27566  0.51041  0.50358  1.0000
  N   N2        1.0  0.45566  0.40078  0.50449  1.0000
  N   N3        1.0  0.56003  0.58947  0.50465  1.0000
  N   N4        1.0  0.37999  0.69927  0.50521  1.0000
  Fe  Fe1       1.0  0.41815  0.55082  0.51484  1.0000
  Fe  Fe2       1.0  0.42063  0.55842  0.62274  1.0000
