data_image0
_chemical_formula_structural       C54N2FeMn
_chemical_formula_sum              "C54 N2 Fe1 Mn1"
_cell_length_a       12.6697
_cell_length_b       12.5405
_cell_length_c       19.9954
_cell_angle_alpha    90.0416
_cell_angle_beta     90.0937
_cell_angle_gamma    89.6718

_space_group_name_H-M_alt    "P 1"
_space_group_IT_number       1

loop_
  _space_group_symop_operation_xyz
  'x, y, z'

loop_
  _atom_site_type_symbol
  _atom_site_label
  _atom_site_symmetry_multiplicity
  _atom_site_fract_x
  _atom_site_fract_y
  _atom_site_fract_z
  _atom_site_occupancy
  C   C1        1.0  0.22156  0.99804  0.50010  1.0000
  C   C2        1.0  0.05380  0.09781  0.50048  1.0000
  C   C3        1.0  0.11012  0.99827  0.50036  1.0000
  C   C4        1.0  0.27609  0.09689  0.50025  1.0000
  C   C5        1.0  0.21936  0.19456  0.50031  1.0000
  C   C6        1.0  0.05337  0.29725  0.50006  1.0000
  C   C7        1.0  0.10824  0.19669  0.50024  1.0000
  C   C8        1.0  0.27408  0.29306  0.50060  1.0000
  C   C9        1.0  0.05959  0.49744  0.49955  1.0000
  C   C10       1.0  0.11158  0.39479  0.49982  1.0000
  C   C11       1.0  0.05964  0.69790  0.49950  1.0000
  C   C12       1.0  0.11815  0.59727  0.49938  1.0000
  C   C13       1.0  0.28020  0.70235  0.49926  1.0000
  C   C14       1.0  0.22392  0.80042  0.49949  1.0000
  C   C15       1.0  0.05617  0.89847  0.50013  1.0000
  C   C16       1.0  0.11239  0.79869  0.49973  1.0000
  C   C17       1.0  0.27804  0.89976  0.49958  1.0000
  C   C18       1.0  0.55571  0.99968  0.49959  1.0000
  C   C19       1.0  0.38749  0.09863  0.50030  1.0000
  C   C20       1.0  0.44410  0.99949  0.49963  1.0000
  C   C21       1.0  0.60987  0.09899  0.50052  1.0000
  C   C22       1.0  0.55376  0.19733  0.50130  1.0000
  C   C23       1.0  0.44049  0.19889  0.50103  1.0000
  C   C24       1.0  0.55773  0.60611  0.49946  1.0000
  C   C25       1.0  0.39311  0.70107  0.49907  1.0000
  C   C26       1.0  0.61350  0.70443  0.49901  1.0000
  C   C27       1.0  0.55751  0.80252  0.49867  1.0000
  C   C28       1.0  0.38961  0.90025  0.49920  1.0000
  C   C29       1.0  0.44618  0.80111  0.49882  1.0000
  C   C30       1.0  0.61219  0.90128  0.49893  1.0000
  C   C31       1.0  0.88875  0.99960  0.50024  1.0000
  C   C32       1.0  0.72150  0.10042  0.50058  1.0000
  C   C33       1.0  0.77754  0.00057  0.49993  1.0000
  C   C34       1.0  0.94232  0.09947  0.50062  1.0000
  C   C35       1.0  0.88670  0.19999  0.50086  1.0000
  C   C36       1.0  0.71735  0.30157  0.50160  1.0000
  C   C37       1.0  0.77494  0.20093  0.50119  1.0000
  C   C38       1.0  0.94189  0.29961  0.50051  1.0000
  C   C39       1.0  0.88726  0.40063  0.50060  1.0000
  C   C40       1.0  0.72193  0.50446  0.50058  1.0000
  C   C41       1.0  0.77463  0.40191  0.50118  1.0000
  C   C42       1.0  0.94693  0.49880  0.49995  1.0000
  C   C43       1.0  0.89191  0.59963  0.49986  1.0000
  C   C44       1.0  0.72487  0.70228  0.49936  1.0000
  C   C45       1.0  0.78026  0.60194  0.49999  1.0000
  C   C46       1.0  0.94756  0.69897  0.49959  1.0000
  C   C47       1.0  0.89145  0.79938  0.49957  1.0000
  C   C48       1.0  0.72360  0.90080  0.49919  1.0000
  C   C49       1.0  0.77976  0.80105  0.49924  1.0000
  C   C50       1.0  0.94496  0.89937  0.49997  1.0000
  C   C51       1.0  0.23004  0.60214  0.49937  1.0000
  C   C52       1.0  0.38537  0.29912  0.50121  1.0000
  C   C53       1.0  0.60609  0.29675  0.50182  1.0000
  C   C54       1.0  0.44576  0.59981  0.49941  1.0000
  N   N1        1.0  0.21828  0.38840  0.50024  1.0000
  N   N2        1.0  0.61514  0.51119  0.50026  1.0000
  Fe  Fe1       1.0  0.32854  0.48452  0.50022  1.0000
  Mn  Mn1       1.0  0.50341  0.41280  0.50100  1.0000
