data_image0
_chemical_formula_structural       C54N2FeCr
_chemical_formula_sum              "C54 N2 Fe1 Cr1"
_cell_length_a       13.0201
_cell_length_b       12.3356
_cell_length_c       19.78
_cell_angle_alpha    90.0369
_cell_angle_beta     90.068
_cell_angle_gamma    90.1198

_space_group_name_H-M_alt    "P 1"
_space_group_IT_number       1

loop_
  _space_group_symop_operation_xyz
  'x, y, z'

loop_
  _atom_site_type_symbol
  _atom_site_label
  _atom_site_symmetry_multiplicity
  _atom_site_fract_x
  _atom_site_fract_y
  _atom_site_fract_z
  _atom_site_occupancy
  C   C1        1.0  0.22475  0.00028  0.49926  1.0000
  C   C2        1.0  0.05645  0.09947  0.50199  1.0000
  C   C3        1.0  0.11269  0.00001  0.50059  1.0000
  C   C4        1.0  0.27969  0.10182  0.49922  1.0000
  C   C5        1.0  0.22204  0.20223  0.49832  1.0000
  C   C6        1.0  0.05264  0.29894  0.50331  1.0000
  C   C7        1.0  0.11101  0.20024  0.50126  1.0000
  C   C8        1.0  0.21207  0.39995  0.49440  1.0000
  C   C9        1.0  0.04974  0.50027  0.50365  1.0000
  C   C10       1.0  0.10410  0.40005  0.50139  1.0000
  C   C11       1.0  0.26501  0.50057  0.48533  1.0000
  C   C12       1.0  0.21193  0.60141  0.49256  1.0000
  C   C13       1.0  0.05231  0.70117  0.50235  1.0000
  C   C14       1.0  0.10418  0.60053  0.50110  1.0000
  C   C15       1.0  0.22247  0.79772  0.49505  1.0000
  C   C16       1.0  0.05635  0.90022  0.50127  1.0000
  C   C17       1.0  0.11087  0.79963  0.49979  1.0000
  C   C18       1.0  0.27944  0.89908  0.49675  1.0000
  C   C19       1.0  0.55660  0.00021  0.50123  1.0000
  C   C20       1.0  0.39150  0.10352  0.49997  1.0000
  C   C21       1.0  0.44578  0.00111  0.49990  1.0000
  C   C22       1.0  0.61336  0.09979  0.50295  1.0000
  C   C23       1.0  0.55867  0.19987  0.50320  1.0000
  C   C24       1.0  0.61601  0.30104  0.50460  1.0000
  C   C25       1.0  0.61083  0.49631  0.50402  1.0000
  C   C26       1.0  0.61297  0.69703  0.50156  1.0000
  C   C27       1.0  0.55722  0.80050  0.49945  1.0000
  C   C28       1.0  0.39097  0.89874  0.49717  1.0000
  C   C29       1.0  0.61284  0.90044  0.50102  1.0000
  C   C30       1.0  0.89009  0.99962  0.50300  1.0000
  C   C31       1.0  0.72374  0.09899  0.50365  1.0000
  C   C32       1.0  0.77930  0.99948  0.50299  1.0000
  C   C33       1.0  0.94567  0.09926  0.50335  1.0000
  C   C34       1.0  0.88901  0.19860  0.50482  1.0000
  C   C35       1.0  0.72491  0.29913  0.50570  1.0000
  C   C36       1.0  0.77928  0.19850  0.50492  1.0000
  C   C37       1.0  0.94290  0.29898  0.50551  1.0000
  C   C38       1.0  0.88788  0.39926  0.50677  1.0000
  C   C39       1.0  0.72198  0.49872  0.50631  1.0000
  C   C40       1.0  0.77847  0.39950  0.50675  1.0000
  C   C41       1.0  0.94139  0.50008  0.50627  1.0000
  C   C42       1.0  0.88687  0.60033  0.50594  1.0000
  C   C43       1.0  0.72307  0.69961  0.50360  1.0000
  C   C44       1.0  0.77693  0.59952  0.50577  1.0000
  C   C45       1.0  0.94215  0.70058  0.50430  1.0000
  C   C46       1.0  0.88827  0.80065  0.50333  1.0000
  C   C47       1.0  0.72325  0.90017  0.50217  1.0000
  C   C48       1.0  0.77820  0.80015  0.50293  1.0000
  C   C49       1.0  0.94543  0.90004  0.50258  1.0000
  C   C50       1.0  0.27228  0.30443  0.49340  1.0000
  C   C51       1.0  0.27225  0.69565  0.48744  1.0000
  C   C52       1.0  0.44913  0.20306  0.50127  1.0000
  C   C53       1.0  0.55695  0.59795  0.49971  1.0000
  C   C54       1.0  0.44838  0.80004  0.49458  1.0000
  N   N1        1.0  0.56140  0.39591  0.50339  1.0000
  N   N2        1.0  0.36507  0.50102  0.47028  1.0000
  Fe  Fe1       1.0  0.41146  0.35432  0.49465  1.0000
  Cr  Cr1       1.0  0.42019  0.64920  0.46197  1.0000
