data_image0
_chemical_formula_structural       C54N2NiFe
_chemical_formula_sum              "C54 N2 Ni1 Fe1"
_cell_length_a       13.064
_cell_length_b       12.3263
_cell_length_c       19.7284
_cell_angle_alpha    89.9933
_cell_angle_beta     89.9885
_cell_angle_gamma    90.0234

_space_group_name_H-M_alt    "P 1"
_space_group_IT_number       1

loop_
  _space_group_symop_operation_xyz
  'x, y, z'

loop_
  _atom_site_type_symbol
  _atom_site_label
  _atom_site_symmetry_multiplicity
  _atom_site_fract_x
  _atom_site_fract_y
  _atom_site_fract_z
  _atom_site_occupancy
  C   C1        1.0  0.22525  0.00005  0.49980  1.0000
  C   C2        1.0  0.05673  0.09956  0.49996  1.0000
  C   C3        1.0  0.11307  0.00012  0.49992  1.0000
  C   C4        1.0  0.28024  0.10186  0.49963  1.0000
  C   C5        1.0  0.22264  0.20253  0.49958  1.0000
  C   C6        1.0  0.05194  0.29826  0.50004  1.0000
  C   C7        1.0  0.11130  0.20023  0.49986  1.0000
  C   C8        1.0  0.21071  0.39867  0.49962  1.0000
  C   C9        1.0  0.04865  0.49982  0.50020  1.0000
  C   C10       1.0  0.10299  0.39914  0.50003  1.0000
  C   C11       1.0  0.26344  0.49979  0.49934  1.0000
  C   C12       1.0  0.20988  0.60110  0.49976  1.0000
  C   C13       1.0  0.05129  0.70151  0.50015  1.0000
  C   C14       1.0  0.10232  0.60049  0.50014  1.0000
  C   C15       1.0  0.22149  0.79771  0.49983  1.0000
  C   C16       1.0  0.05622  0.90072  0.50002  1.0000
  C   C17       1.0  0.11028  0.80002  0.50002  1.0000
  C   C18       1.0  0.27997  0.89835  0.49981  1.0000
  C   C19       1.0  0.55705  0.00076  0.49993  1.0000
  C   C20       1.0  0.39224  0.10378  0.49960  1.0000
  C   C21       1.0  0.44642  0.00094  0.49980  1.0000
  C   C22       1.0  0.61347  0.10037  0.49989  1.0000
  C   C23       1.0  0.55862  0.20041  0.49962  1.0000
  C   C24       1.0  0.61545  0.30226  0.49960  1.0000
  C   C25       1.0  0.61167  0.49678  0.49955  1.0000
  C   C26       1.0  0.61563  0.69833  0.49981  1.0000
  C   C27       1.0  0.55949  0.80118  0.49989  1.0000
  C   C28       1.0  0.39223  0.89768  0.49980  1.0000
  C   C29       1.0  0.61383  0.90137  0.50003  1.0000
  C   C30       1.0  0.89025  0.00020  0.50010  1.0000
  C   C31       1.0  0.72369  0.09947  0.50004  1.0000
  C   C32       1.0  0.77966  0.00028  0.50011  1.0000
  C   C33       1.0  0.94587  0.09953  0.50007  1.0000
  C   C34       1.0  0.88865  0.19866  0.50010  1.0000
  C   C35       1.0  0.72461  0.29972  0.49988  1.0000
  C   C36       1.0  0.77902  0.19905  0.50003  1.0000
  C   C37       1.0  0.94250  0.29876  0.50014  1.0000
  C   C38       1.0  0.88763  0.39903  0.50015  1.0000
  C   C39       1.0  0.72252  0.49881  0.49984  1.0000
  C   C40       1.0  0.77852  0.39956  0.49997  1.0000
  C   C41       1.0  0.94084  0.49982  0.50021  1.0000
  C   C42       1.0  0.88680  0.60041  0.50015  1.0000
  C   C43       1.0  0.72448  0.70034  0.49996  1.0000
  C   C44       1.0  0.77759  0.59963  0.49998  1.0000
  C   C45       1.0  0.94183  0.70096  0.50016  1.0000
  C   C46       1.0  0.88852  0.80137  0.50011  1.0000
  C   C47       1.0  0.72390  0.90101  0.50009  1.0000
  C   C48       1.0  0.77904  0.80101  0.50007  1.0000
  C   C49       1.0  0.94559  0.90068  0.50009  1.0000
  C   C50       1.0  0.27326  0.30533  0.49932  1.0000
  C   C51       1.0  0.27102  0.69489  0.49953  1.0000
  C   C52       1.0  0.44963  0.20394  0.49943  1.0000
  C   C53       1.0  0.55904  0.59952  0.49949  1.0000
  C   C54       1.0  0.45047  0.79897  0.49974  1.0000
  N   N1        1.0  0.56075  0.39652  0.49936  1.0000
  N   N2        1.0  0.36453  0.49908  0.49861  1.0000
  Ni  Ni1       1.0  0.41063  0.35054  0.49897  1.0000
  Fe  Fe1       1.0  0.41508  0.64408  0.49901  1.0000
