data_image0
_chemical_formula_structural       C50N6FeMn
_chemical_formula_sum              "C50 N6 Fe1 Mn1"
_cell_length_a       12.6957
_cell_length_b       12.472
_cell_length_c       20.0636
_cell_angle_alpha    90.0156
_cell_angle_beta     89.988
_cell_angle_gamma    90.0051

_space_group_name_H-M_alt    "P 1"
_space_group_IT_number       1

loop_
  _space_group_symop_operation_xyz
  'x, y, z'

loop_
  _atom_site_type_symbol
  _atom_site_label
  _atom_site_symmetry_multiplicity
  _atom_site_fract_x
  _atom_site_fract_y
  _atom_site_fract_z
  _atom_site_occupancy
  C   C1        1.0  0.22108  0.99998  0.50001  1.0000
  C   C2        1.0  0.05527  0.10083  0.50001  1.0000
  C   C3        1.0  0.10953  0.99995  0.50000  1.0000
  C   C4        1.0  0.27668  0.09937  0.50000  1.0000
  C   C5        1.0  0.22414  0.20032  0.49998  1.0000
  C   C6        1.0  0.05577  0.30093  0.50002  1.0000
  C   C7        1.0  0.11142  0.20111  0.50001  1.0000
  C   C8        1.0  0.28408  0.29865  0.49988  1.0000
  C   C9        1.0  0.22717  0.39879  0.49990  1.0000
  C   C10       1.0  0.05630  0.49983  0.50002  1.0000
  C   C11       1.0  0.11350  0.39990  0.50000  1.0000
  C   C12       1.0  0.28358  0.49934  0.49982  1.0000
  C   C13       1.0  0.22745  0.60062  0.49996  1.0000
  C   C14       1.0  0.05578  0.69870  0.50003  1.0000
  C   C15       1.0  0.11367  0.59968  0.50002  1.0000
  C   C16       1.0  0.28368  0.70129  0.49998  1.0000
  C   C17       1.0  0.22386  0.79959  0.50001  1.0000
  C   C18       1.0  0.05521  0.89906  0.50000  1.0000
  C   C19       1.0  0.11122  0.79871  0.50001  1.0000
  C   C20       1.0  0.27658  0.90062  0.50002  1.0000
  C   C21       1.0  0.55456  0.00017  0.50005  1.0000
  C   C22       1.0  0.38812  0.09868  0.50000  1.0000
  C   C23       1.0  0.44386  0.00018  0.50005  1.0000
  C   C24       1.0  0.61032  0.09867  0.50001  1.0000
  C   C25       1.0  0.55516  0.19650  0.49990  1.0000
  C   C26       1.0  0.44329  0.19651  0.49990  1.0000
  C   C27       1.0  0.55521  0.80391  0.50002  1.0000
  C   C28       1.0  0.38806  0.90169  0.50004  1.0000
  C   C29       1.0  0.44318  0.80391  0.50002  1.0000
  C   C30       1.0  0.61034  0.90168  0.50004  1.0000
  C   C31       1.0  0.88889  0.99994  0.50000  1.0000
  C   C32       1.0  0.72176  0.09935  0.50001  1.0000
  C   C33       1.0  0.77734  0.99996  0.50002  1.0000
  C   C34       1.0  0.94317  0.10082  0.50002  1.0000
  C   C35       1.0  0.88703  0.20109  0.50002  1.0000
  C   C36       1.0  0.71438  0.29862  0.49989  1.0000
  C   C37       1.0  0.77432  0.20030  0.49999  1.0000
  C   C38       1.0  0.94268  0.30093  0.50002  1.0000
  C   C39       1.0  0.88495  0.39989  0.50000  1.0000
  C   C40       1.0  0.71486  0.49930  0.49983  1.0000
  C   C41       1.0  0.77128  0.39877  0.49991  1.0000
  C   C42       1.0  0.94213  0.49982  0.50003  1.0000
  C   C43       1.0  0.88474  0.59967  0.50002  1.0000
  C   C44       1.0  0.71472  0.70126  0.49998  1.0000
  C   C45       1.0  0.77096  0.60060  0.49997  1.0000
  C   C46       1.0  0.94262  0.69869  0.50003  1.0000
  C   C47       1.0  0.88718  0.79869  0.50001  1.0000
  C   C48       1.0  0.72182  0.90060  0.50002  1.0000
  C   C49       1.0  0.77454  0.79957  0.50001  1.0000
  C   C50       1.0  0.94319  0.89905  0.50000  1.0000
  N   N1        1.0  0.39379  0.29505  0.49978  1.0000
  N   N2        1.0  0.60468  0.29504  0.49979  1.0000
  N   N3        1.0  0.38886  0.49884  0.49959  1.0000
  N   N4        1.0  0.60957  0.49883  0.49960  1.0000
  N   N5        1.0  0.39325  0.70559  0.49995  1.0000
  N   N6        1.0  0.60515  0.70558  0.49995  1.0000
  Fe  Fe1       1.0  0.49922  0.40681  0.49959  1.0000
  Mn  Mn1       1.0  0.49922  0.59077  0.49971  1.0000
