data_image0
_chemical_formula_structural       C52N4FeTi
_chemical_formula_sum              "C52 N4 Fe1 Ti1"
_cell_length_a       12.6977
_cell_length_b       12.5247
_cell_length_c       19.9768
_cell_angle_alpha    90.016
_cell_angle_beta     90.1609
_cell_angle_gamma    89.5369

_space_group_name_H-M_alt    "P 1"
_space_group_IT_number       1

loop_
  _space_group_symop_operation_xyz
  'x, y, z'

loop_
  _atom_site_type_symbol
  _atom_site_label
  _atom_site_symmetry_multiplicity
  _atom_site_fract_x
  _atom_site_fract_y
  _atom_site_fract_z
  _atom_site_occupancy
  C   C1        1.0  0.22110  0.99769  0.50152  1.0000
  C   C2        1.0  0.05370  0.09827  0.50034  1.0000
  C   C3        1.0  0.10998  0.99842  0.50055  1.0000
  C   C4        1.0  0.27612  0.09607  0.50287  1.0000
  C   C5        1.0  0.21966  0.19409  0.50292  1.0000
  C   C6        1.0  0.05466  0.29837  0.50037  1.0000
  C   C7        1.0  0.10848  0.19706  0.50118  1.0000
  C   C8        1.0  0.27518  0.29165  0.50476  1.0000
  C   C9        1.0  0.06270  0.49863  0.49779  1.0000
  C   C10       1.0  0.11551  0.39571  0.49995  1.0000
  C   C11       1.0  0.05919  0.69847  0.49748  1.0000
  C   C12       1.0  0.11952  0.59966  0.49698  1.0000
  C   C13       1.0  0.27919  0.70088  0.49731  1.0000
  C   C14       1.0  0.22386  0.80007  0.49919  1.0000
  C   C15       1.0  0.05602  0.89863  0.49930  1.0000
  C   C16       1.0  0.11222  0.79916  0.49876  1.0000
  C   C17       1.0  0.27782  0.89915  0.50061  1.0000
  C   C18       1.0  0.55546  0.99939  0.50012  1.0000
  C   C19       1.0  0.38749  0.09730  0.50348  1.0000
  C   C20       1.0  0.44411  0.99854  0.50139  1.0000
  C   C21       1.0  0.61002  0.09858  0.50170  1.0000
  C   C22       1.0  0.55438  0.19712  0.50620  1.0000
  C   C23       1.0  0.44108  0.19716  0.50587  1.0000
  C   C24       1.0  0.55629  0.60648  0.49433  1.0000
  C   C25       1.0  0.39152  0.70121  0.49645  1.0000
  C   C26       1.0  0.61240  0.70415  0.49486  1.0000
  C   C27       1.0  0.55655  0.80247  0.49630  1.0000
  C   C28       1.0  0.38899  0.89962  0.50011  1.0000
  C   C29       1.0  0.44482  0.80037  0.49778  1.0000
  C   C30       1.0  0.61147  0.90064  0.49766  1.0000
  C   C31       1.0  0.88854  0.99951  0.49861  1.0000
  C   C32       1.0  0.72155  0.10039  0.50026  1.0000
  C   C33       1.0  0.77744  0.00017  0.49854  1.0000
  C   C34       1.0  0.94231  0.09980  0.49932  1.0000
  C   C35       1.0  0.88702  0.20059  0.49954  1.0000
  C   C36       1.0  0.71655  0.30139  0.50383  1.0000
  C   C37       1.0  0.77487  0.20122  0.50067  1.0000
  C   C38       1.0  0.94263  0.30053  0.49974  1.0000
  C   C39       1.0  0.88728  0.40179  0.49911  1.0000
  C   C40       1.0  0.71920  0.50438  0.49768  1.0000
  C   C41       1.0  0.77339  0.40275  0.50062  1.0000
  C   C42       1.0  0.94811  0.49947  0.49752  1.0000
  C   C43       1.0  0.89159  0.59903  0.49645  1.0000
  C   C44       1.0  0.72408  0.70147  0.49534  1.0000
  C   C45       1.0  0.77878  0.60074  0.49583  1.0000
  C   C46       1.0  0.94705  0.69860  0.49689  1.0000
  C   C47       1.0  0.89107  0.79918  0.49712  1.0000
  C   C48       1.0  0.72323  0.90027  0.49733  1.0000
  C   C49       1.0  0.77920  0.80046  0.49635  1.0000
  C   C50       1.0  0.94464  0.89912  0.49829  1.0000
  C   C51       1.0  0.38617  0.29669  0.50803  1.0000
  C   C52       1.0  0.60538  0.29719  0.51025  1.0000
  N   N1        1.0  0.22258  0.38833  0.50195  1.0000
  N   N2        1.0  0.22805  0.60408  0.49602  1.0000
  N   N3        1.0  0.60910  0.51115  0.49769  1.0000
  N   N4        1.0  0.44659  0.60256  0.49274  1.0000
  Fe  Fe1       1.0  0.34241  0.48395  0.48808  1.0000
  Ti  Ti1       1.0  0.49800  0.41581  0.54056  1.0000
