data_image0
_chemical_formula_structural       C48N6FeMn
_chemical_formula_sum              "C48 N6 Fe1 Mn1"
_cell_length_a       12.7425
_cell_length_b       12.3146
_cell_length_c       20.2454
_cell_angle_alpha    90.0332
_cell_angle_beta     89.9852
_cell_angle_gamma    89.9991

_space_group_name_H-M_alt    "P 1"
_space_group_IT_number       1

loop_
  _space_group_symop_operation_xyz
  'x, y, z'

loop_
  _atom_site_type_symbol
  _atom_site_label
  _atom_site_symmetry_multiplicity
  _atom_site_fract_x
  _atom_site_fract_y
  _atom_site_fract_z
  _atom_site_occupancy
  C   C1        1.0  0.22183  0.00078  0.50058  1.0000
  C   C2        1.0  0.05533  0.10183  0.50059  1.0000
  C   C3        1.0  0.11004  0.00085  0.50033  1.0000
  C   C4        1.0  0.27732  0.10133  0.50037  1.0000
  C   C5        1.0  0.22417  0.20330  0.50008  1.0000
  C   C6        1.0  0.05562  0.30209  0.50023  1.0000
  C   C7        1.0  0.11152  0.20238  0.50055  1.0000
  C   C8        1.0  0.28317  0.30280  0.49849  1.0000
  C   C9        1.0  0.22669  0.40547  0.49908  1.0000
  C   C10       1.0  0.05583  0.50066  0.49958  1.0000
  C   C11       1.0  0.11290  0.40157  0.49970  1.0000
  C   C12       1.0  0.22606  0.59638  0.50008  1.0000
  C   C13       1.0  0.05548  0.69953  0.49962  1.0000
  C   C14       1.0  0.11273  0.60006  0.49963  1.0000
  C   C15       1.0  0.28272  0.69922  0.50152  1.0000
  C   C16       1.0  0.22356  0.79853  0.50065  1.0000
  C   C17       1.0  0.05525  0.90007  0.49992  1.0000
  C   C18       1.0  0.11118  0.79936  0.49984  1.0000
  C   C19       1.0  0.27730  0.90012  0.50099  1.0000
  C   C20       1.0  0.55456  0.00033  0.50115  1.0000
  C   C21       1.0  0.38871  0.10086  0.50029  1.0000
  C   C22       1.0  0.44381  0.00033  0.50115  1.0000
  C   C23       1.0  0.60967  0.10085  0.50030  1.0000
  C   C24       1.0  0.55562  0.20189  0.49856  1.0000
  C   C25       1.0  0.44277  0.20189  0.49855  1.0000
  C   C26       1.0  0.55601  0.79798  0.50298  1.0000
  C   C27       1.0  0.38878  0.89969  0.50165  1.0000
  C   C28       1.0  0.44235  0.79798  0.50298  1.0000
  C   C29       1.0  0.60959  0.89968  0.50165  1.0000
  C   C30       1.0  0.88833  0.00083  0.50034  1.0000
  C   C31       1.0  0.72106  0.10133  0.50039  1.0000
  C   C32       1.0  0.77655  0.00077  0.50059  1.0000
  C   C33       1.0  0.94305  0.10182  0.50060  1.0000
  C   C34       1.0  0.88687  0.20238  0.50056  1.0000
  C   C35       1.0  0.71521  0.30279  0.49851  1.0000
  C   C36       1.0  0.77422  0.20329  0.50009  1.0000
  C   C37       1.0  0.94276  0.30209  0.50023  1.0000
  C   C38       1.0  0.88547  0.40157  0.49969  1.0000
  C   C39       1.0  0.77168  0.40545  0.49909  1.0000
  C   C40       1.0  0.94254  0.50066  0.49958  1.0000
  C   C41       1.0  0.88563  0.60006  0.49963  1.0000
  C   C42       1.0  0.71564  0.69921  0.50153  1.0000
  C   C43       1.0  0.77231  0.59637  0.50008  1.0000
  C   C44       1.0  0.94287  0.69953  0.49962  1.0000
  C   C45       1.0  0.88718  0.79935  0.49985  1.0000
  C   C46       1.0  0.72107  0.90011  0.50101  1.0000
  C   C47       1.0  0.77481  0.79852  0.50066  1.0000
  C   C48       1.0  0.94313  0.90006  0.49993  1.0000
  N   N1        1.0  0.28031  0.50109  0.49937  1.0000
  N   N2        1.0  0.39173  0.30080  0.49621  1.0000
  N   N3        1.0  0.60665  0.30080  0.49624  1.0000
  N   N4        1.0  0.39050  0.70041  0.50379  1.0000
  N   N5        1.0  0.60785  0.70040  0.50379  1.0000
  N   N6        1.0  0.71807  0.50108  0.49937  1.0000
  Fe  Fe1       1.0  0.49922  0.40484  0.47211  1.0000
  Mn  Mn1       1.0  0.49918  0.57006  0.51354  1.0000
