data_image0
_chemical_formula_structural       C54N4FeZn
_chemical_formula_sum              "C54 N4 Fe1 Zn1"
_cell_length_a       12.8884
_cell_length_b       12.2966
_cell_length_c       20.0851
_cell_angle_alpha    93.2163
_cell_angle_beta     91.3181
_cell_angle_gamma    90.8563

_space_group_name_H-M_alt    "P 1"
_space_group_IT_number       1

loop_
  _space_group_symop_operation_xyz
  'x, y, z'

loop_
  _atom_site_type_symbol
  _atom_site_label
  _atom_site_symmetry_multiplicity
  _atom_site_fract_x
  _atom_site_fract_y
  _atom_site_fract_z
  _atom_site_occupancy
  C   C1        1.0  0.22267  0.00307  0.49891  1.0000
  C   C2        1.0  0.05768  0.10167  0.49721  1.0000
  C   C3        1.0  0.11160  0.00195  0.49814  1.0000
  C   C4        1.0  0.27974  0.10359  0.49886  1.0000
  C   C5        1.0  0.22664  0.20577  0.49886  1.0000
  C   C6        1.0  0.05932  0.30176  0.49697  1.0000
  C   C7        1.0  0.11519  0.20265  0.49763  1.0000
  C   C8        1.0  0.28397  0.30843  0.50011  1.0000
  C   C9        1.0  0.22619  0.40901  0.50042  1.0000
  C   C10       1.0  0.05555  0.50130  0.49797  1.0000
  C   C11       1.0  0.11438  0.40347  0.49828  1.0000
  C   C12       1.0  0.21729  0.60418  0.50112  1.0000
  C   C13       1.0  0.05313  0.70247  0.49853  1.0000
  C   C14       1.0  0.10857  0.60317  0.49920  1.0000
  C   C15       1.0  0.27277  0.70474  0.50158  1.0000
  C   C16       1.0  0.21887  0.80336  0.50008  1.0000
  C   C17       1.0  0.05406  0.90191  0.49810  1.0000
  C   C18       1.0  0.10849  0.80255  0.49894  1.0000
  C   C19       1.0  0.27671  0.90256  0.49987  1.0000
  C   C20       1.0  0.55517  0.99528  0.49826  1.0000
  C   C21       1.0  0.39045  0.10055  0.49871  1.0000
  C   C22       1.0  0.44448  0.99839  0.49900  1.0000
  C   C23       1.0  0.61218  0.09571  0.49675  1.0000
  C   C24       1.0  0.55817  0.19632  0.49674  1.0000
  C   C25       1.0  0.39622  0.30518  0.49967  1.0000
  C   C26       1.0  0.44768  0.20096  0.49817  1.0000
  C   C27       1.0  0.61595  0.29541  0.49560  1.0000
  C   C28       1.0  0.56218  0.39432  0.49727  1.0000
  C   C29       1.0  0.61768  0.49484  0.49712  1.0000
  C   C30       1.0  0.60883  0.69014  0.49938  1.0000
  C   C31       1.0  0.55110  0.79080  0.50041  1.0000
  C   C32       1.0  0.38728  0.89803  0.50012  1.0000
  C   C33       1.0  0.43887  0.79410  0.50145  1.0000
  C   C34       1.0  0.60828  0.89321  0.49877  1.0000
  C   C35       1.0  0.88850  0.99913  0.49664  1.0000
  C   C36       1.0  0.72318  0.09668  0.49589  1.0000
  C   C37       1.0  0.77710  0.99691  0.49659  1.0000
  C   C38       1.0  0.94626  0.09941  0.49627  1.0000
  C   C39       1.0  0.89148  0.19866  0.49527  1.0000
  C   C40       1.0  0.72631  0.29602  0.49448  1.0000
  C   C41       1.0  0.78069  0.19662  0.49487  1.0000
  C   C42       1.0  0.94807  0.29942  0.49556  1.0000
  C   C43       1.0  0.89182  0.39813  0.49521  1.0000
  C   C44       1.0  0.72625  0.49554  0.49556  1.0000
  C   C45       1.0  0.78166  0.39607  0.49456  1.0000
  C   C46       1.0  0.94569  0.49950  0.49644  1.0000
  C   C47       1.0  0.88910  0.59906  0.49667  1.0000
  C   C48       1.0  0.72053  0.69535  0.49756  1.0000
  C   C49       1.0  0.77931  0.59738  0.49645  1.0000
  C   C50       1.0  0.94297  0.70042  0.49754  1.0000
  C   C51       1.0  0.88672  0.79911  0.49740  1.0000
  C   C52       1.0  0.71965  0.89611  0.49760  1.0000
  C   C53       1.0  0.77551  0.79693  0.49747  1.0000
  C   C54       1.0  0.94330  0.89986  0.49740  1.0000
  N   N1        1.0  0.27524  0.51012  0.50252  1.0000
  N   N2        1.0  0.45541  0.39999  0.50057  1.0000
  N   N3        1.0  0.55994  0.58925  0.50013  1.0000
  N   N4        1.0  0.37982  0.69954  0.50337  1.0000
  Fe  Fe1       1.0  0.41800  0.55018  0.50788  1.0000
  Zn  Zn1       1.0  0.43210  0.55946  0.64590  1.0000
