data_image0
_chemical_formula_structural       C54N2CoFe
_chemical_formula_sum              "C54 N2 Co1 Fe1"
_cell_length_a       12.6535
_cell_length_b       12.538
_cell_length_c       20.0247
_cell_angle_alpha    89.9954
_cell_angle_beta     90.0381
_cell_angle_gamma    89.8324

_space_group_name_H-M_alt    "P 1"
_space_group_IT_number       1

loop_
  _space_group_symop_operation_xyz
  'x, y, z'

loop_
  _atom_site_type_symbol
  _atom_site_label
  _atom_site_symmetry_multiplicity
  _atom_site_fract_x
  _atom_site_fract_y
  _atom_site_fract_z
  _atom_site_occupancy
  C   C1        1.0  0.22153  0.99788  0.49994  1.0000
  C   C2        1.0  0.05391  0.09806  0.49995  1.0000
  C   C3        1.0  0.10989  0.99833  0.49995  1.0000
  C   C4        1.0  0.27615  0.09683  0.49996  1.0000
  C   C5        1.0  0.22038  0.19522  0.50008  1.0000
  C   C6        1.0  0.05435  0.29738  0.50008  1.0000
  C   C7        1.0  0.10892  0.19720  0.50005  1.0000
  C   C8        1.0  0.27597  0.29366  0.50033  1.0000
  C   C9        1.0  0.06005  0.49777  0.50006  1.0000
  C   C10       1.0  0.11385  0.39488  0.50019  1.0000
  C   C11       1.0  0.05972  0.69769  0.49997  1.0000
  C   C12       1.0  0.11842  0.59734  0.49998  1.0000
  C   C13       1.0  0.28009  0.70188  0.49995  1.0000
  C   C14       1.0  0.22370  0.80004  0.49999  1.0000
  C   C15       1.0  0.05603  0.89848  0.49999  1.0000
  C   C16       1.0  0.11222  0.79862  0.49999  1.0000
  C   C17       1.0  0.27783  0.89957  0.49998  1.0000
  C   C18       1.0  0.55582  0.99949  0.49990  1.0000
  C   C19       1.0  0.38739  0.09810  0.49991  1.0000
  C   C20       1.0  0.44396  0.99904  0.49990  1.0000
  C   C21       1.0  0.61000  0.09890  0.49991  1.0000
  C   C22       1.0  0.55355  0.19702  0.50004  1.0000
  C   C23       1.0  0.44061  0.19821  0.50008  1.0000
  C   C24       1.0  0.55703  0.60583  0.50008  1.0000
  C   C25       1.0  0.39318  0.70048  0.50000  1.0000
  C   C26       1.0  0.61303  0.70409  0.50003  1.0000
  C   C27       1.0  0.55746  0.80236  0.50001  1.0000
  C   C28       1.0  0.38961  0.89981  0.49998  1.0000
  C   C29       1.0  0.44626  0.80071  0.50002  1.0000
  C   C30       1.0  0.61217  0.90127  0.49995  1.0000
  C   C31       1.0  0.88886  0.99970  0.49997  1.0000
  C   C32       1.0  0.72151  0.10053  0.49996  1.0000
  C   C33       1.0  0.77762  0.00070  0.49995  1.0000
  C   C34       1.0  0.94237  0.09983  0.49995  1.0000
  C   C35       1.0  0.88644  0.20048  0.49998  1.0000
  C   C36       1.0  0.71564  0.30191  0.50017  1.0000
  C   C37       1.0  0.77416  0.20159  0.50003  1.0000
  C   C38       1.0  0.94228  0.29975  0.50003  1.0000
  C   C39       1.0  0.88683  0.40042  0.50006  1.0000
  C   C40       1.0  0.72037  0.50441  0.50015  1.0000
  C   C41       1.0  0.77401  0.40153  0.50015  1.0000
  C   C42       1.0  0.94735  0.49882  0.50003  1.0000
  C   C43       1.0  0.89170  0.59959  0.49999  1.0000
  C   C44       1.0  0.72461  0.70202  0.50000  1.0000
  C   C45       1.0  0.77973  0.60189  0.50001  1.0000
  C   C46       1.0  0.94743  0.69880  0.49998  1.0000
  C   C47       1.0  0.89128  0.79929  0.49999  1.0000
  C   C48       1.0  0.72370  0.90087  0.49995  1.0000
  C   C49       1.0  0.77969  0.80101  0.49997  1.0000
  C   C50       1.0  0.94478  0.89948  0.49999  1.0000
  C   C51       1.0  0.23098  0.60131  0.49992  1.0000
  C   C52       1.0  0.38853  0.29963  0.50038  1.0000
  C   C53       1.0  0.60305  0.29769  0.50024  1.0000
  C   C54       1.0  0.44464  0.59905  0.50004  1.0000
  N   N1        1.0  0.22064  0.38909  0.50043  1.0000
  N   N2        1.0  0.61380  0.51074  0.50024  1.0000
  Co  Co1       1.0  0.32932  0.48531  0.50009  1.0000
  Fe  Fe1       1.0  0.50193  0.41402  0.50059  1.0000
