data_image0
_chemical_formula_structural       C52N5Fe2
_chemical_formula_sum              "C52 N5 Fe2"
_cell_length_a       12.81
_cell_length_b       12.4
_cell_length_c       20
_cell_angle_alpha    90
_cell_angle_beta     90
_cell_angle_gamma    90

_space_group_name_H-M_alt    "P 1"
_space_group_IT_number       1

loop_
  _space_group_symop_operation_xyz
  'x, y, z'

loop_
  _atom_site_type_symbol
  _atom_site_label
  _atom_site_symmetry_multiplicity
  _atom_site_fract_x
  _atom_site_fract_y
  _atom_site_fract_z
  _atom_site_occupancy
  C   C1        1.0  0.22243  0.00237  0.49959  1.0000
  C   C2        1.0  0.05741  0.10228  0.49879  1.0000
  C   C3        1.0  0.11121  0.00160  0.49871  1.0000
  C   C4        1.0  0.27815  0.10332  0.50173  1.0000
  C   C5        1.0  0.22484  0.20519  0.50414  1.0000
  C   C6        1.0  0.05701  0.30286  0.49982  1.0000
  C   C7        1.0  0.11307  0.20332  0.50107  1.0000
  C   C8        1.0  0.28161  0.30636  0.50907  1.0000
  C   C9        1.0  0.22280  0.40740  0.50916  1.0000
  C   C10       1.0  0.05420  0.50337  0.50021  1.0000
  C   C11       1.0  0.11135  0.40378  0.50218  1.0000
  C   C12       1.0  0.22183  0.60273  0.50375  1.0000
  C   C13       1.0  0.05345  0.70173  0.49701  1.0000
  C   C14       1.0  0.11015  0.60319  0.49942  1.0000
  C   C15       1.0  0.28150  0.70175  0.50011  1.0000
  C   C16       1.0  0.22315  0.80065  0.49794  1.0000
  C   C17       1.0  0.05566  0.90115  0.49721  1.0000
  C   C18       1.0  0.11083  0.80068  0.49722  1.0000
  C   C19       1.0  0.27708  0.90245  0.49845  1.0000
  C   C20       1.0  0.55515  0.00129  0.49706  1.0000
  C   C21       1.0  0.38887  0.10149  0.50045  1.0000
  C   C22       1.0  0.44425  0.00189  0.49833  1.0000
  C   C23       1.0  0.61235  0.09925  0.49669  1.0000
  C   C24       1.0  0.55714  0.19746  0.49939  1.0000
  C   C25       1.0  0.39437  0.30106  0.50958  1.0000
  C   C26       1.0  0.44605  0.19996  0.50227  1.0000
  C   C27       1.0  0.61492  0.29468  0.49928  1.0000
  C   C28       1.0  0.56080  0.39088  0.50641  1.0000
  C   C29       1.0  0.55431  0.80417  0.49767  1.0000
  C   C30       1.0  0.38835  0.90239  0.49843  1.0000
  C   C31       1.0  0.44265  0.80316  0.49859  1.0000
  C   C32       1.0  0.61015  0.90231  0.49663  1.0000
  C   C33       1.0  0.88995  0.00078  0.49580  1.0000
  C   C34       1.0  0.72362  0.09987  0.49530  1.0000
  C   C35       1.0  0.77843  0.00019  0.49526  1.0000
  C   C36       1.0  0.94619  0.10102  0.49664  1.0000
  C   C37       1.0  0.89114  0.20090  0.49605  1.0000
  C   C38       1.0  0.72521  0.29803  0.49647  1.0000
  C   C39       1.0  0.78019  0.19923  0.49525  1.0000
  C   C40       1.0  0.94532  0.30184  0.49737  1.0000
  C   C41       1.0  0.88853  0.40152  0.49774  1.0000
  C   C42       1.0  0.71668  0.49716  0.50013  1.0000
  C   C43       1.0  0.77707  0.39958  0.49792  1.0000
  C   C44       1.0  0.94217  0.50249  0.49857  1.0000
  C   C45       1.0  0.88341  0.60119  0.49782  1.0000
  C   C46       1.0  0.71438  0.70160  0.49795  1.0000
  C   C47       1.0  0.76963  0.59996  0.49854  1.0000
  C   C48       1.0  0.94107  0.70036  0.49681  1.0000
  C   C49       1.0  0.88635  0.80034  0.49635  1.0000
  C   C50       1.0  0.72149  0.90129  0.49595  1.0000
  C   C51       1.0  0.77445  0.80019  0.49667  1.0000
  C   C52       1.0  0.94382  0.90027  0.49629  1.0000
  N   N1        1.0  0.27251  0.50593  0.51523  1.0000
  N   N2        1.0  0.45554  0.39225  0.51768  1.0000
  N   N3        1.0  0.60878  0.49002  0.50424  1.0000
  N   N4        1.0  0.39189  0.70346  0.50044  1.0000
  N   N5        1.0  0.60615  0.70631  0.49800  1.0000
  Fe  Fe1       1.0  0.40111  0.51330  0.56751  1.0000
  Fe  Fe2       1.0  0.50320  0.59633  0.50349  1.0000
