data_image0
_chemical_formula_structural       C53N5FeMn
_chemical_formula_sum              "C53 N5 Fe1 Mn1"
_cell_length_a       12.8621
_cell_length_b       12.3962
_cell_length_c       19.9265
_cell_angle_alpha    89.9309
_cell_angle_beta     89.5422
_cell_angle_gamma    90.5196

_space_group_name_H-M_alt    "P 1"
_space_group_IT_number       1

loop_
  _space_group_symop_operation_xyz
  'x, y, z'

loop_
  _atom_site_type_symbol
  _atom_site_label
  _atom_site_symmetry_multiplicity
  _atom_site_fract_x
  _atom_site_fract_y
  _atom_site_fract_z
  _atom_site_occupancy
  C   C1        1.0  0.22208  0.00135  0.49204  1.0000
  C   C2        1.0  0.05728  0.10132  0.48691  1.0000
  C   C3        1.0  0.11106  0.00088  0.48895  1.0000
  C   C4        1.0  0.27807  0.10226  0.49218  1.0000
  C   C5        1.0  0.22495  0.20429  0.49507  1.0000
  C   C6        1.0  0.05700  0.30129  0.49116  1.0000
  C   C7        1.0  0.11318  0.20221  0.49070  1.0000
  C   C8        1.0  0.28161  0.30492  0.50404  1.0000
  C   C9        1.0  0.22166  0.40581  0.50777  1.0000
  C   C10       1.0  0.05339  0.50129  0.49795  1.0000
  C   C11       1.0  0.11089  0.40229  0.49794  1.0000
  C   C12       1.0  0.21739  0.60140  0.51327  1.0000
  C   C13       1.0  0.05247  0.70054  0.49598  1.0000
  C   C14       1.0  0.10798  0.60156  0.50128  1.0000
  C   C15       1.0  0.27233  0.70364  0.51577  1.0000
  C   C16       1.0  0.21927  0.80122  0.50073  1.0000
  C   C17       1.0  0.05464  0.90062  0.48899  1.0000
  C   C18       1.0  0.10859  0.80078  0.49407  1.0000
  C   C19       1.0  0.27639  0.90149  0.49755  1.0000
  C   C20       1.0  0.55472  0.99873  0.48820  1.0000
  C   C21       1.0  0.38862  0.09990  0.49005  1.0000
  C   C22       1.0  0.44378  0.99993  0.49086  1.0000
  C   C23       1.0  0.61170  0.09751  0.48365  1.0000
  C   C24       1.0  0.55672  0.19619  0.48750  1.0000
  C   C25       1.0  0.39472  0.29877  0.50521  1.0000
  C   C26       1.0  0.44583  0.19883  0.49206  1.0000
  C   C27       1.0  0.61422  0.29384  0.49164  1.0000
  C   C28       1.0  0.56160  0.38823  0.51060  1.0000
  C   C29       1.0  0.37911  0.71296  0.53727  1.0000
  C   C30       1.0  0.55556  0.80246  0.51012  1.0000
  C   C31       1.0  0.38805  0.90073  0.49969  1.0000
  C   C32       1.0  0.44282  0.80379  0.51507  1.0000
  C   C33       1.0  0.60999  0.89998  0.49411  1.0000
  C   C34       1.0  0.88929  0.99953  0.48382  1.0000
  C   C35       1.0  0.72292  0.09818  0.48199  1.0000
  C   C36       1.0  0.77788  0.99873  0.48374  1.0000
  C   C37       1.0  0.94595  0.10000  0.48367  1.0000
  C   C38       1.0  0.89077  0.19944  0.48359  1.0000
  C   C39       1.0  0.72458  0.29646  0.48794  1.0000
  C   C40       1.0  0.77958  0.19793  0.48264  1.0000
  C   C41       1.0  0.94573  0.30021  0.48746  1.0000
  C   C42       1.0  0.88930  0.39934  0.49093  1.0000
  C   C43       1.0  0.72050  0.49288  0.50641  1.0000
  C   C44       1.0  0.77858  0.39720  0.49329  1.0000
  C   C45       1.0  0.94207  0.50050  0.49528  1.0000
  C   C46       1.0  0.88392  0.59931  0.49796  1.0000
  C   C47       1.0  0.71756  0.70193  0.50629  1.0000
  C   C48       1.0  0.77144  0.59814  0.50486  1.0000
  C   C49       1.0  0.94098  0.69929  0.49462  1.0000
  C   C50       1.0  0.88694  0.79937  0.49103  1.0000
  C   C51       1.0  0.72126  0.89946  0.49005  1.0000
  C   C52       1.0  0.77573  0.79949  0.49448  1.0000
  C   C53       1.0  0.94339  0.89959  0.48699  1.0000
  N   N1        1.0  0.26839  0.50425  0.52170  1.0000
  N   N2        1.0  0.45586  0.38735  0.52265  1.0000
  N   N3        1.0  0.61617  0.48188  0.52213  1.0000
  N   N4        1.0  0.41400  0.63985  0.58124  1.0000
  N   N5        1.0  0.61210  0.70911  0.51979  1.0000
  Fe  Fe1       1.0  0.39169  0.49671  0.57222  1.0000
  Mn  Mn1       1.0  0.55069  0.59412  0.57645  1.0000
