data_image0
_chemical_formula_structural       C48N6FeZn
_chemical_formula_sum              "C48 N6 Fe1 Zn1"
_cell_length_a       12.81
_cell_length_b       12.4
_cell_length_c       20
_cell_angle_alpha    90
_cell_angle_beta     90
_cell_angle_gamma    90

_space_group_name_H-M_alt    "P 1"
_space_group_IT_number       1

loop_
  _space_group_symop_operation_xyz
  'x, y, z'

loop_
  _atom_site_type_symbol
  _atom_site_label
  _atom_site_symmetry_multiplicity
  _atom_site_fract_x
  _atom_site_fract_y
  _atom_site_fract_z
  _atom_site_occupancy
  C   C1        1.0  0.22157  0.00044  0.50182  1.0000
  C   C2        1.0  0.05520  0.10113  0.50122  1.0000
  C   C3        1.0  0.10993  0.00038  0.50130  1.0000
  C   C4        1.0  0.27697  0.10069  0.50175  1.0000
  C   C5        1.0  0.22328  0.20222  0.50093  1.0000
  C   C6        1.0  0.05535  0.30138  0.50048  1.0000
  C   C7        1.0  0.11089  0.20160  0.50104  1.0000
  C   C8        1.0  0.28198  0.30131  0.49952  1.0000
  C   C9        1.0  0.22548  0.40471  0.49989  1.0000
  C   C10       1.0  0.05579  0.50040  0.49983  1.0000
  C   C11       1.0  0.11209  0.40089  0.49996  1.0000
  C   C12       1.0  0.22588  0.59575  0.50038  1.0000
  C   C13       1.0  0.05547  0.69931  0.50000  1.0000
  C   C14       1.0  0.11243  0.59980  0.49979  1.0000
  C   C15       1.0  0.28265  0.69954  0.50112  1.0000
  C   C16       1.0  0.22336  0.79856  0.50138  1.0000
  C   C17       1.0  0.05526  0.89965  0.50100  1.0000
  C   C18       1.0  0.11100  0.79912  0.50073  1.0000
  C   C19       1.0  0.27704  0.90011  0.50225  1.0000
  C   C20       1.0  0.55457  0.00062  0.50365  1.0000
  C   C21       1.0  0.38844  0.10023  0.50249  1.0000
  C   C22       1.0  0.44378  0.00058  0.50366  1.0000
  C   C23       1.0  0.60987  0.10028  0.50248  1.0000
  C   C24       1.0  0.55607  0.20085  0.50071  1.0000
  C   C25       1.0  0.44220  0.20080  0.50070  1.0000
  C   C26       1.0  0.55639  0.80020  0.50309  1.0000
  C   C27       1.0  0.38848  0.90079  0.50337  1.0000
  C   C28       1.0  0.44210  0.80015  0.50312  1.0000
  C   C29       1.0  0.60994  0.90085  0.50334  1.0000
  C   C30       1.0  0.88844  0.00042  0.50132  1.0000
  C   C31       1.0  0.72133  0.10076  0.50177  1.0000
  C   C32       1.0  0.77680  0.00050  0.50183  1.0000
  C   C33       1.0  0.94311  0.10117  0.50123  1.0000
  C   C34       1.0  0.88736  0.20165  0.50105  1.0000
  C   C35       1.0  0.71622  0.30143  0.49955  1.0000
  C   C36       1.0  0.77496  0.20231  0.50094  1.0000
  C   C37       1.0  0.94291  0.30140  0.50049  1.0000
  C   C38       1.0  0.88620  0.40095  0.49997  1.0000
  C   C39       1.0  0.77279  0.40482  0.49990  1.0000
  C   C40       1.0  0.94259  0.50041  0.49982  1.0000
  C   C41       1.0  0.88603  0.59985  0.49976  1.0000
  C   C42       1.0  0.71591  0.69967  0.50107  1.0000
  C   C43       1.0  0.77260  0.59586  0.50035  1.0000
  C   C44       1.0  0.94297  0.69934  0.49999  1.0000
  C   C45       1.0  0.88746  0.79919  0.50072  1.0000
  C   C46       1.0  0.72138  0.90018  0.50223  1.0000
  C   C47       1.0  0.77512  0.79867  0.50135  1.0000
  C   C48       1.0  0.94315  0.89968  0.50100  1.0000
  N   N1        1.0  0.27843  0.50009  0.50069  1.0000
  N   N2        1.0  0.38986  0.29795  0.49776  1.0000
  N   N3        1.0  0.60833  0.29805  0.49780  1.0000
  N   N4        1.0  0.39002  0.70379  0.50160  1.0000
  N   N5        1.0  0.60856  0.70390  0.50153  1.0000
  N   N6        1.0  0.71995  0.50028  0.50070  1.0000
  Fe  Fe1       1.0  0.49888  0.40104  0.46333  1.0000
  Zn  Zn1       1.0  0.49964  0.58788  0.47875  1.0000
