data_image0
_chemical_formula_structural       C54N4Fe2
_chemical_formula_sum              "C54 N4 Fe2"
_cell_length_a       12.8933
_cell_length_b       12.3588
_cell_length_c       19.9408
_cell_angle_alpha    90.9915
_cell_angle_beta     90.0539
_cell_angle_gamma    90.498

_space_group_name_H-M_alt    "P 1"
_space_group_IT_number       1

loop_
  _space_group_symop_operation_xyz
  'x, y, z'

loop_
  _atom_site_type_symbol
  _atom_site_label
  _atom_site_symmetry_multiplicity
  _atom_site_fract_x
  _atom_site_fract_y
  _atom_site_fract_z
  _atom_site_occupancy
  C   C1        1.0  0.22085  0.00267  0.49532  1.0000
  C   C2        1.0  0.05539  0.10179  0.49259  1.0000
  C   C3        1.0  0.10993  0.00188  0.49326  1.0000
  C   C4        1.0  0.27737  0.10299  0.49684  1.0000
  C   C5        1.0  0.22346  0.20460  0.49873  1.0000
  C   C6        1.0  0.05562  0.30145  0.49404  1.0000
  C   C7        1.0  0.11198  0.20232  0.49497  1.0000
  C   C8        1.0  0.27998  0.30607  0.50517  1.0000
  C   C9        1.0  0.22047  0.40647  0.50628  1.0000
  C   C10       1.0  0.05403  0.50177  0.49645  1.0000
  C   C11       1.0  0.11018  0.40230  0.49754  1.0000
  C   C12       1.0  0.21832  0.60198  0.50885  1.0000
  C   C13       1.0  0.05328  0.70199  0.49444  1.0000
  C   C14       1.0  0.10906  0.60273  0.49877  1.0000
  C   C15       1.0  0.27475  0.70422  0.50906  1.0000
  C   C16       1.0  0.21906  0.80218  0.49923  1.0000
  C   C17       1.0  0.05372  0.90170  0.49228  1.0000
  C   C18       1.0  0.10854  0.80194  0.49460  1.0000
  C   C19       1.0  0.27541  0.90236  0.49783  1.0000
  C   C20       1.0  0.55414  0.99812  0.49685  1.0000
  C   C21       1.0  0.38831  0.10078  0.49685  1.0000
  C   C22       1.0  0.44320  0.00032  0.49679  1.0000
  C   C23       1.0  0.61066  0.09835  0.49552  1.0000
  C   C24       1.0  0.55610  0.19880  0.49813  1.0000
  C   C25       1.0  0.39324  0.30182  0.50712  1.0000
  C   C26       1.0  0.44528  0.20016  0.49942  1.0000
  C   C27       1.0  0.61246  0.29906  0.49956  1.0000
  C   C28       1.0  0.55680  0.39758  0.50933  1.0000
  C   C29       1.0  0.61322  0.49980  0.50903  1.0000
  C   C30       1.0  0.61107  0.69516  0.50626  1.0000
  C   C31       1.0  0.55155  0.79549  0.50505  1.0000
  C   C32       1.0  0.38623  0.90108  0.49918  1.0000
  C   C33       1.0  0.43829  0.79985  0.50690  1.0000
  C   C34       1.0  0.60805  0.89661  0.49866  1.0000
  C   C35       1.0  0.88747  0.00025  0.49117  1.0000
  C   C36       1.0  0.72157  0.09902  0.49344  1.0000
  C   C37       1.0  0.77611  0.99907  0.49262  1.0000
  C   C38       1.0  0.94402  0.10052  0.49120  1.0000
  C   C39       1.0  0.88865  0.20008  0.49140  1.0000
  C   C40       1.0  0.72296  0.29903  0.49488  1.0000
  C   C41       1.0  0.77777  0.19915  0.49252  1.0000
  C   C42       1.0  0.94458  0.30045  0.49205  1.0000
  C   C43       1.0  0.88887  0.40001  0.49275  1.0000
  C   C44       1.0  0.72244  0.49848  0.49892  1.0000
  C   C45       1.0  0.77821  0.39897  0.49464  1.0000
  C   C46       1.0  0.94379  0.50064  0.49370  1.0000
  C   C47       1.0  0.88769  0.60027  0.49368  1.0000
  C   C48       1.0  0.72132  0.69883  0.49753  1.0000
  C   C49       1.0  0.77747  0.59930  0.49650  1.0000
  C   C50       1.0  0.94261  0.70084  0.49264  1.0000
  C   C51       1.0  0.88690  0.80036  0.49193  1.0000
  C   C52       1.0  0.71952  0.89867  0.49493  1.0000
  C   C53       1.0  0.77587  0.79948  0.49397  1.0000
  C   C54       1.0  0.94284  0.90070  0.49125  1.0000
  N   N1        1.0  0.26846  0.50502  0.51826  1.0000
  N   N2        1.0  0.45104  0.39438  0.51872  1.0000
  N   N3        1.0  0.56312  0.59732  0.51834  1.0000
  N   N4        1.0  0.38052  0.70794  0.51848  1.0000
  Fe  Fe1       1.0  0.37463  0.47904  0.58877  1.0000
  Fe  Fe2       1.0  0.45706  0.62752  0.58874  1.0000
