data_image0
_chemical_formula_structural       C50N6FeTi
_chemical_formula_sum              "C50 N6 Fe1 Ti1"
_cell_length_a       12.7224
_cell_length_b       12.477
_cell_length_c       20.0135
_cell_angle_alpha    90.0484
_cell_angle_beta     89.9993
_cell_angle_gamma    89.9991

_space_group_name_H-M_alt    "P 1"
_space_group_IT_number       1

loop_
  _space_group_symop_operation_xyz
  'x, y, z'

loop_
  _atom_site_type_symbol
  _atom_site_label
  _atom_site_symmetry_multiplicity
  _atom_site_fract_x
  _atom_site_fract_y
  _atom_site_fract_z
  _atom_site_occupancy
  C   C1        1.0  0.22117  0.99992  0.50436  1.0000
  C   C2        1.0  0.05527  0.10074  0.50452  1.0000
  C   C3        1.0  0.10957  0.99997  0.50415  1.0000
  C   C4        1.0  0.27674  0.09945  0.50517  1.0000
  C   C5        1.0  0.22402  0.20013  0.50417  1.0000
  C   C6        1.0  0.05562  0.30056  0.50363  1.0000
  C   C7        1.0  0.11131  0.20089  0.50422  1.0000
  C   C8        1.0  0.28365  0.29843  0.50200  1.0000
  C   C9        1.0  0.22629  0.39854  0.50006  1.0000
  C   C10       1.0  0.05612  0.49981  0.50079  1.0000
  C   C11       1.0  0.11306  0.39963  0.50191  1.0000
  C   C12       1.0  0.28223  0.49850  0.49356  1.0000
  C   C13       1.0  0.22669  0.60066  0.49558  1.0000
  C   C14       1.0  0.05565  0.69889  0.50099  1.0000
  C   C15       1.0  0.11337  0.59988  0.49941  1.0000
  C   C16       1.0  0.28258  0.70175  0.49551  1.0000
  C   C17       1.0  0.22332  0.79983  0.50062  1.0000
  C   C18       1.0  0.05517  0.89931  0.50336  1.0000
  C   C19       1.0  0.11093  0.79896  0.50193  1.0000
  C   C20       1.0  0.27654  0.90071  0.50270  1.0000
  C   C21       1.0  0.55452  0.00033  0.50586  1.0000
  C   C22       1.0  0.38820  0.09901  0.50632  1.0000
  C   C23       1.0  0.44390  0.00033  0.50585  1.0000
  C   C24       1.0  0.61022  0.09901  0.50632  1.0000
  C   C25       1.0  0.55541  0.19704  0.50536  1.0000
  C   C26       1.0  0.44302  0.19705  0.50535  1.0000
  C   C27       1.0  0.55558  0.80402  0.49750  1.0000
  C   C28       1.0  0.38826  0.90193  0.50287  1.0000
  C   C29       1.0  0.44285  0.80402  0.49750  1.0000
  C   C30       1.0  0.61016  0.90192  0.50287  1.0000
  C   C31       1.0  0.88886  0.99997  0.50416  1.0000
  C   C32       1.0  0.72169  0.09945  0.50517  1.0000
  C   C33       1.0  0.77726  0.99992  0.50437  1.0000
  C   C34       1.0  0.94316  0.10074  0.50452  1.0000
  C   C35       1.0  0.88712  0.20089  0.50423  1.0000
  C   C36       1.0  0.71477  0.29843  0.50201  1.0000
  C   C37       1.0  0.77440  0.20012  0.50418  1.0000
  C   C38       1.0  0.94281  0.30056  0.50363  1.0000
  C   C39       1.0  0.88537  0.39963  0.50191  1.0000
  C   C40       1.0  0.71620  0.49850  0.49357  1.0000
  C   C41       1.0  0.77214  0.39854  0.50007  1.0000
  C   C42       1.0  0.94230  0.49982  0.50079  1.0000
  C   C43       1.0  0.88506  0.59988  0.49941  1.0000
  C   C44       1.0  0.71584  0.70175  0.49552  1.0000
  C   C45       1.0  0.77173  0.60065  0.49559  1.0000
  C   C46       1.0  0.94277  0.69890  0.50099  1.0000
  C   C47       1.0  0.88750  0.79896  0.50193  1.0000
  C   C48       1.0  0.72188  0.90071  0.50271  1.0000
  C   C49       1.0  0.77510  0.79984  0.50063  1.0000
  C   C50       1.0  0.94326  0.89931  0.50336  1.0000
  N   N1        1.0  0.39316  0.29521  0.50165  1.0000
  N   N2        1.0  0.60526  0.29522  0.50165  1.0000
  N   N3        1.0  0.38624  0.49821  0.48405  1.0000
  N   N4        1.0  0.61218  0.49820  0.48406  1.0000
  N   N5        1.0  0.39166  0.70705  0.49045  1.0000
  N   N6        1.0  0.60677  0.70704  0.49045  1.0000
  Fe  Fe1       1.0  0.49922  0.40491  0.49044  1.0000
  Ti  Ti1       1.0  0.49922  0.58891  0.46156  1.0000
