data_image0
_chemical_formula_structural       C49N7FeMn
_chemical_formula_sum              "C49 N7 Fe1 Mn1"
_cell_length_a       13.0107
_cell_length_b       12.2617
_cell_length_c       19.9136
_cell_angle_alpha    89.9925
_cell_angle_beta     89.9772
_cell_angle_gamma    90.088

_space_group_name_H-M_alt    "P 1"
_space_group_IT_number       1

loop_
  _space_group_symop_operation_xyz
  'x, y, z'

loop_
  _atom_site_type_symbol
  _atom_site_label
  _atom_site_symmetry_multiplicity
  _atom_site_fract_x
  _atom_site_fract_y
  _atom_site_fract_z
  _atom_site_occupancy
  C   C1        1.0  0.22782  0.00060  0.49980  1.0000
  C   C2        1.0  0.05833  0.10000  0.49999  1.0000
  C   C3        1.0  0.11582  0.00032  0.49993  1.0000
  C   C4        1.0  0.28270  0.10500  0.49955  1.0000
  C   C5        1.0  0.22308  0.20578  0.49951  1.0000
  C   C6        1.0  0.05112  0.29881  0.50007  1.0000
  C   C7        1.0  0.11147  0.20121  0.49988  1.0000
  C   C8        1.0  0.20958  0.40013  0.49962  1.0000
  C   C9        1.0  0.04778  0.50001  0.50031  1.0000
  C   C10       1.0  0.10218  0.40002  0.50010  1.0000
  C   C11       1.0  0.26294  0.50021  0.49934  1.0000
  C   C12       1.0  0.20936  0.60018  0.49991  1.0000
  C   C13       1.0  0.05089  0.70132  0.50015  1.0000
  C   C14       1.0  0.10216  0.60024  0.50025  1.0000
  C   C15       1.0  0.22247  0.79552  0.49990  1.0000
  C   C16       1.0  0.05824  0.90065  0.50001  1.0000
  C   C17       1.0  0.11130  0.79937  0.50003  1.0000
  C   C18       1.0  0.28227  0.89616  0.49984  1.0000
  C   C19       1.0  0.55827  0.99978  0.50004  1.0000
  C   C20       1.0  0.39477  0.10456  0.49952  1.0000
  C   C21       1.0  0.44780  0.00043  0.49986  1.0000
  C   C22       1.0  0.61451  0.09952  0.50000  1.0000
  C   C23       1.0  0.55910  0.19911  0.49960  1.0000
  C   C24       1.0  0.61396  0.30106  0.49955  1.0000
  C   C25       1.0  0.60899  0.49832  0.49948  1.0000
  C   C26       1.0  0.61364  0.69802  0.49980  1.0000
  C   C27       1.0  0.55868  0.80032  0.49994  1.0000
  C   C28       1.0  0.39450  0.89685  0.49984  1.0000
  C   C29       1.0  0.61438  0.89996  0.50012  1.0000
  C   C30       1.0  0.89115  0.99998  0.50009  1.0000
  C   C31       1.0  0.72463  0.09913  0.50014  1.0000
  C   C32       1.0  0.78072  0.99983  0.50015  1.0000
  C   C33       1.0  0.94696  0.09979  0.50010  1.0000
  C   C34       1.0  0.88902  0.19856  0.50015  1.0000
  C   C35       1.0  0.72270  0.29876  0.49992  1.0000
  C   C36       1.0  0.77899  0.19873  0.50011  1.0000
  C   C37       1.0  0.94198  0.29905  0.50017  1.0000
  C   C38       1.0  0.88562  0.39933  0.50018  1.0000
  C   C39       1.0  0.72012  0.49931  0.49988  1.0000
  C   C40       1.0  0.77641  0.39960  0.50000  1.0000
  C   C41       1.0  0.93939  0.49991  0.50026  1.0000
  C   C42       1.0  0.88529  0.60031  0.50014  1.0000
  C   C43       1.0  0.72226  0.70055  0.49996  1.0000
  C   C44       1.0  0.77610  0.59958  0.50000  1.0000
  C   C45       1.0  0.94187  0.70081  0.50009  1.0000
  C   C46       1.0  0.88885  0.80126  0.50003  1.0000
  C   C47       1.0  0.72453  0.90038  0.50013  1.0000
  C   C48       1.0  0.77877  0.80079  0.50004  1.0000
  C   C49       1.0  0.94682  0.90027  0.50003  1.0000
  N   N1        1.0  0.26979  0.30711  0.49917  1.0000
  N   N2        1.0  0.26911  0.69397  0.49974  1.0000
  N   N3        1.0  0.45235  0.20081  0.49921  1.0000
  N   N4        1.0  0.55764  0.39882  0.49915  1.0000
  N   N5        1.0  0.36693  0.49891  0.49840  1.0000
  N   N6        1.0  0.55822  0.59870  0.49943  1.0000
  N   N7        1.0  0.45169  0.80073  0.49976  1.0000
  Fe  Fe1       1.0  0.41167  0.35252  0.49855  1.0000
  Mn  Mn1       1.0  0.41275  0.64397  0.49904  1.0000
