data_image0
_chemical_formula_structural       C52N4CuFe
_chemical_formula_sum              "C52 N4 Cu1 Fe1"
_cell_length_a       13.0365
_cell_length_b       12.3059
_cell_length_c       19.8031
_cell_angle_alpha    89.9981
_cell_angle_beta     89.988
_cell_angle_gamma    89.9867

_space_group_name_H-M_alt    "P 1"
_space_group_IT_number       1

loop_
  _space_group_symop_operation_xyz
  'x, y, z'

loop_
  _atom_site_type_symbol
  _atom_site_label
  _atom_site_symmetry_multiplicity
  _atom_site_fract_x
  _atom_site_fract_y
  _atom_site_fract_z
  _atom_site_occupancy
  C   C1        1.0  0.22663  0.00155  0.49977  1.0000
  C   C2        1.0  0.05695  0.09966  0.49997  1.0000
  C   C3        1.0  0.11423  0.00049  0.49991  1.0000
  C   C4        1.0  0.28208  0.10508  0.49963  1.0000
  C   C5        1.0  0.22200  0.20481  0.49964  1.0000
  C   C6        1.0  0.05097  0.29842  0.50003  1.0000
  C   C7        1.0  0.11031  0.20063  0.49988  1.0000
  C   C8        1.0  0.21004  0.39747  0.49961  1.0000
  C   C9        1.0  0.04834  0.49957  0.50014  1.0000
  C   C10       1.0  0.10241  0.39919  0.49997  1.0000
  C   C11       1.0  0.26414  0.49735  0.49936  1.0000
  C   C12       1.0  0.21073  0.59901  0.49971  1.0000
  C   C13       1.0  0.05228  0.70106  0.50011  1.0000
  C   C14       1.0  0.10295  0.59959  0.50005  1.0000
  C   C15       1.0  0.22285  0.79728  0.49980  1.0000
  C   C16       1.0  0.05768  0.90060  0.50002  1.0000
  C   C17       1.0  0.11163  0.79952  0.49999  1.0000
  C   C18       1.0  0.28011  0.89916  0.49976  1.0000
  C   C19       1.0  0.55757  0.99895  0.49991  1.0000
  C   C20       1.0  0.39439  0.10435  0.49959  1.0000
  C   C21       1.0  0.44707  0.00002  0.49978  1.0000
  C   C22       1.0  0.61374  0.09851  0.49990  1.0000
  C   C23       1.0  0.55823  0.19699  0.49963  1.0000
  C   C24       1.0  0.61229  0.30058  0.49960  1.0000
  C   C25       1.0  0.60936  0.50164  0.49956  1.0000
  C   C26       1.0  0.61611  0.69843  0.49978  1.0000
  C   C27       1.0  0.55905  0.80029  0.49984  1.0000
  C   C28       1.0  0.39221  0.89765  0.49976  1.0000
  C   C29       1.0  0.61429  0.89986  0.49999  1.0000
  C   C30       1.0  0.89087  0.99993  0.50011  1.0000
  C   C31       1.0  0.72408  0.09908  0.50003  1.0000
  C   C32       1.0  0.78015  0.99996  0.50011  1.0000
  C   C33       1.0  0.94592  0.09968  0.50008  1.0000
  C   C34       1.0  0.88825  0.19864  0.50010  1.0000
  C   C35       1.0  0.72245  0.29900  0.49985  1.0000
  C   C36       1.0  0.77831  0.19899  0.50002  1.0000
  C   C37       1.0  0.94127  0.29897  0.50013  1.0000
  C   C38       1.0  0.88577  0.39914  0.50014  1.0000
  C   C39       1.0  0.72086  0.50002  0.49983  1.0000
  C   C40       1.0  0.77595  0.39952  0.49995  1.0000
  C   C41       1.0  0.94015  0.49942  0.50020  1.0000
  C   C42       1.0  0.88693  0.60024  0.50016  1.0000
  C   C43       1.0  0.72476  0.70038  0.49996  1.0000
  C   C44       1.0  0.77764  0.59958  0.49999  1.0000
  C   C45       1.0  0.94263  0.70070  0.50017  1.0000
  C   C46       1.0  0.88943  0.80121  0.50013  1.0000
  C   C47       1.0  0.72450  0.90054  0.50008  1.0000
  C   C48       1.0  0.77966  0.80106  0.50009  1.0000
  C   C49       1.0  0.94667  0.90051  0.50010  1.0000
  C   C50       1.0  0.27270  0.69351  0.49956  1.0000
  C   C51       1.0  0.55630  0.39945  0.49944  1.0000
  C   C52       1.0  0.44992  0.79822  0.49971  1.0000
  N   N1        1.0  0.26786  0.30485  0.49944  1.0000
  N   N2        1.0  0.45274  0.19880  0.49939  1.0000
  N   N3        1.0  0.36640  0.50213  0.49875  1.0000
  N   N4        1.0  0.56100  0.60366  0.49951  1.0000
  Cu  Cu1       1.0  0.41252  0.35436  0.49911  1.0000
  Fe  Fe1       1.0  0.41408  0.64565  0.49916  1.0000
