data_image0
_chemical_formula_structural       C52N5FeTi
_chemical_formula_sum              "C52 N5 Fe1 Ti1"
_cell_length_a       12.7931
_cell_length_b       12.4102
_cell_length_c       20.0162
_cell_angle_alpha    89.3119
_cell_angle_beta     90.7284
_cell_angle_gamma    91.0332

_space_group_name_H-M_alt    "P 1"
_space_group_IT_number       1

loop_
  _space_group_symop_operation_xyz
  'x, y, z'

loop_
  _atom_site_type_symbol
  _atom_site_label
  _atom_site_symmetry_multiplicity
  _atom_site_fract_x
  _atom_site_fract_y
  _atom_site_fract_z
  _atom_site_occupancy
  C   C1        1.0  0.22287  0.00342  0.50019  1.0000
  C   C2        1.0  0.05873  0.10267  0.49995  1.0000
  C   C3        1.0  0.11138  0.00225  0.50026  1.0000
  C   C4        1.0  0.27949  0.10472  0.49916  1.0000
  C   C5        1.0  0.22744  0.20688  0.49933  1.0000
  C   C6        1.0  0.06074  0.30383  0.49984  1.0000
  C   C7        1.0  0.11544  0.20429  0.49991  1.0000
  C   C8        1.0  0.28519  0.30910  0.49866  1.0000
  C   C9        1.0  0.22945  0.41124  0.50132  1.0000
  C   C10       1.0  0.05593  0.50335  0.50104  1.0000
  C   C11       1.0  0.11600  0.40576  0.50066  1.0000
  C   C12       1.0  0.22186  0.60472  0.50259  1.0000
  C   C13       1.0  0.05284  0.70189  0.50102  1.0000
  C   C14       1.0  0.11011  0.60398  0.50147  1.0000
  C   C15       1.0  0.27627  0.70548  0.50245  1.0000
  C   C16       1.0  0.22035  0.80347  0.50162  1.0000
  C   C17       1.0  0.05435  0.90174  0.50047  1.0000
  C   C18       1.0  0.10884  0.80216  0.50103  1.0000
  C   C19       1.0  0.27654  0.90400  0.50102  1.0000
  C   C20       1.0  0.55556  0.99824  0.49870  1.0000
  C   C21       1.0  0.39021  0.10156  0.49822  1.0000
  C   C22       1.0  0.44471  0.00119  0.49915  1.0000
  C   C23       1.0  0.61337  0.09665  0.49734  1.0000
  C   C24       1.0  0.55895  0.19499  0.49560  1.0000
  C   C25       1.0  0.39736  0.30333  0.49498  1.0000
  C   C26       1.0  0.44784  0.20038  0.49602  1.0000
  C   C27       1.0  0.61792  0.29129  0.49476  1.0000
  C   C28       1.0  0.56438  0.38796  0.49254  1.0000
  C   C29       1.0  0.55299  0.79858  0.50083  1.0000
  C   C30       1.0  0.38824  0.90159  0.50080  1.0000
  C   C31       1.0  0.44156  0.80208  0.50174  1.0000
  C   C32       1.0  0.60929  0.89857  0.49969  1.0000
  C   C33       1.0  0.88981  0.99973  0.49956  1.0000
  C   C34       1.0  0.72461  0.09766  0.49797  1.0000
  C   C35       1.0  0.77830  0.99815  0.49907  1.0000
  C   C36       1.0  0.94735  0.10036  0.49952  1.0000
  C   C37       1.0  0.89345  0.19993  0.49892  1.0000
  C   C38       1.0  0.72784  0.29537  0.49663  1.0000
  C   C39       1.0  0.78238  0.19727  0.49785  1.0000
  C   C40       1.0  0.94848  0.30147  0.49928  1.0000
  C   C41       1.0  0.89120  0.39998  0.49910  1.0000
  C   C42       1.0  0.71963  0.49405  0.49742  1.0000
  C   C43       1.0  0.78008  0.39734  0.49750  1.0000
  C   C44       1.0  0.94371  0.50180  0.50025  1.0000
  C   C45       1.0  0.88378  0.59983  0.50039  1.0000
  C   C46       1.0  0.71069  0.69767  0.50037  1.0000
  C   C47       1.0  0.76997  0.59790  0.49972  1.0000
  C   C48       1.0  0.94051  0.69981  0.50068  1.0000
  C   C49       1.0  0.88479  0.79862  0.50030  1.0000
  C   C50       1.0  0.72057  0.89843  0.49962  1.0000
  C   C51       1.0  0.77227  0.79715  0.50018  1.0000
  C   C52       1.0  0.94253  0.89955  0.50013  1.0000
  N   N1        1.0  0.28192  0.51113  0.50469  1.0000
  N   N2        1.0  0.45851  0.39508  0.49058  1.0000
  N   N3        1.0  0.61305  0.48579  0.49477  1.0000
  N   N4        1.0  0.38593  0.70401  0.50400  1.0000
  N   N5        1.0  0.60146  0.69908  0.50109  1.0000
  Fe  Fe1       1.0  0.38742  0.57875  0.59622  1.0000
  Ti  Ti1       1.0  0.46891  0.56432  0.50368  1.0000
