data_image0
_chemical_formula_structural       C54N4FeCo
_chemical_formula_sum              "C54 N4 Fe1 Co1"
_cell_length_a       12.8884
_cell_length_b       12.2966
_cell_length_c       20.0851
_cell_angle_alpha    93.2163
_cell_angle_beta     91.3181
_cell_angle_gamma    90.8563

_space_group_name_H-M_alt    "P 1"
_space_group_IT_number       1

loop_
  _space_group_symop_operation_xyz
  'x, y, z'

loop_
  _atom_site_type_symbol
  _atom_site_label
  _atom_site_symmetry_multiplicity
  _atom_site_fract_x
  _atom_site_fract_y
  _atom_site_fract_z
  _atom_site_occupancy
  C   C1        1.0  0.22292  0.00291  0.49844  1.0000
  C   C2        1.0  0.05788  0.10167  0.49722  1.0000
  C   C3        1.0  0.11185  0.00175  0.49716  1.0000
  C   C4        1.0  0.27999  0.10366  0.49960  1.0000
  C   C5        1.0  0.22693  0.20588  0.49991  1.0000
  C   C6        1.0  0.05950  0.30184  0.49765  1.0000
  C   C7        1.0  0.11535  0.20272  0.49836  1.0000
  C   C8        1.0  0.28421  0.30860  0.50148  1.0000
  C   C9        1.0  0.22645  0.40916  0.50072  1.0000
  C   C10       1.0  0.05575  0.50112  0.49696  1.0000
  C   C11       1.0  0.11459  0.40349  0.49823  1.0000
  C   C12       1.0  0.21778  0.60350  0.49848  1.0000
  C   C13       1.0  0.05341  0.70191  0.49527  1.0000
  C   C14       1.0  0.10889  0.60264  0.49638  1.0000
  C   C15       1.0  0.27338  0.70422  0.49898  1.0000
  C   C16       1.0  0.21926  0.80287  0.49719  1.0000
  C   C17       1.0  0.05437  0.90152  0.49588  1.0000
  C   C18       1.0  0.10884  0.80206  0.49568  1.0000
  C   C19       1.0  0.27694  0.90227  0.49862  1.0000
  C   C20       1.0  0.55543  0.99532  0.49950  1.0000
  C   C21       1.0  0.39070  0.10066  0.49986  1.0000
  C   C22       1.0  0.44475  0.99837  0.49976  1.0000
  C   C23       1.0  0.61244  0.09584  0.49873  1.0000
  C   C24       1.0  0.55844  0.19654  0.49921  1.0000
  C   C25       1.0  0.39646  0.30547  0.50193  1.0000
  C   C26       1.0  0.44790  0.20123  0.50017  1.0000
  C   C27       1.0  0.61599  0.29576  0.49833  1.0000
  C   C28       1.0  0.56198  0.39472  0.50002  1.0000
  C   C29       1.0  0.61753  0.49532  0.49953  1.0000
  C   C30       1.0  0.60898  0.69006  0.50073  1.0000
  C   C31       1.0  0.55129  0.79077  0.50125  1.0000
  C   C32       1.0  0.38756  0.89783  0.49988  1.0000
  C   C33       1.0  0.43907  0.79393  0.50165  1.0000
  C   C34       1.0  0.60849  0.89313  0.49957  1.0000
  C   C35       1.0  0.88873  0.99897  0.49632  1.0000
  C   C36       1.0  0.72340  0.09677  0.49759  1.0000
  C   C37       1.0  0.77735  0.99685  0.49713  1.0000
  C   C38       1.0  0.94644  0.09941  0.49657  1.0000
  C   C39       1.0  0.89163  0.19878  0.49656  1.0000
  C   C40       1.0  0.72632  0.29631  0.49704  1.0000
  C   C41       1.0  0.78079  0.19683  0.49686  1.0000
  C   C42       1.0  0.94818  0.29955  0.49668  1.0000
  C   C43       1.0  0.89183  0.39825  0.49644  1.0000
  C   C44       1.0  0.72625  0.49579  0.49734  1.0000
  C   C45       1.0  0.78167  0.39638  0.49658  1.0000
  C   C46       1.0  0.94578  0.49947  0.49636  1.0000
  C   C47       1.0  0.88928  0.59886  0.49604  1.0000
  C   C48       1.0  0.72064  0.69520  0.49777  1.0000
  C   C49       1.0  0.77937  0.59735  0.49694  1.0000
  C   C50       1.0  0.94322  0.70003  0.49533  1.0000
  C   C51       1.0  0.88692  0.79879  0.49561  1.0000
  C   C52       1.0  0.71992  0.89597  0.49782  1.0000
  C   C53       1.0  0.77570  0.79672  0.49682  1.0000
  C   C54       1.0  0.94351  0.89953  0.49571  1.0000
  N   N1        1.0  0.27567  0.51014  0.50236  1.0000
  N   N2        1.0  0.45554  0.40060  0.50378  1.0000
  N   N3        1.0  0.55987  0.58944  0.50296  1.0000
  N   N4        1.0  0.38006  0.69913  0.50330  1.0000
  Fe  Fe1       1.0  0.41808  0.55087  0.51414  1.0000
  Co  Co1       1.0  0.42048  0.56100  0.62160  1.0000
