data_image0
_chemical_formula_structural       C54N2Fe2
_chemical_formula_sum              "C54 N2 Fe2"
_cell_length_a       13.083
_cell_length_b       12.3433
_cell_length_c       19.6724
_cell_angle_alpha    89.9859
_cell_angle_beta     89.9777
_cell_angle_gamma    90.0357

_space_group_name_H-M_alt    "P 1"
_space_group_IT_number       1

loop_
  _space_group_symop_operation_xyz
  'x, y, z'

loop_
  _atom_site_type_symbol
  _atom_site_label
  _atom_site_symmetry_multiplicity
  _atom_site_fract_x
  _atom_site_fract_y
  _atom_site_fract_z
  _atom_site_occupancy
  C   C1        1.0  0.22499  0.99987  0.49979  1.0000
  C   C2        1.0  0.05643  0.09934  0.49997  1.0000
  C   C3        1.0  0.11287  0.99994  0.49991  1.0000
  C   C4        1.0  0.27988  0.10152  0.49959  1.0000
  C   C5        1.0  0.22191  0.20199  0.49954  1.0000
  C   C6        1.0  0.05167  0.29823  0.50007  1.0000
  C   C7        1.0  0.11087  0.19993  0.49987  1.0000
  C   C8        1.0  0.20985  0.39896  0.49960  1.0000
  C   C9        1.0  0.04832  0.49999  0.50026  1.0000
  C   C10       1.0  0.10227  0.39929  0.50007  1.0000
  C   C11       1.0  0.26236  0.50024  0.49931  1.0000
  C   C12       1.0  0.20936  0.60140  0.49983  1.0000
  C   C13       1.0  0.05113  0.70157  0.50017  1.0000
  C   C14       1.0  0.10193  0.60061  0.50019  1.0000
  C   C15       1.0  0.22115  0.79786  0.49987  1.0000
  C   C16       1.0  0.05602  0.90066  0.50002  1.0000
  C   C17       1.0  0.11019  0.80005  0.50004  1.0000
  C   C18       1.0  0.27978  0.89823  0.49982  1.0000
  C   C19       1.0  0.55710  0.00050  0.49994  1.0000
  C   C20       1.0  0.39191  0.10251  0.49955  1.0000
  C   C21       1.0  0.44631  0.00014  0.49980  1.0000
  C   C22       1.0  0.61381  0.09992  0.49990  1.0000
  C   C23       1.0  0.55897  0.20008  0.49958  1.0000
  C   C24       1.0  0.61648  0.30177  0.49956  1.0000
  C   C25       1.0  0.61303  0.49789  0.49951  1.0000
  C   C26       1.0  0.61573  0.69835  0.49980  1.0000
  C   C27       1.0  0.55956  0.80113  0.49990  1.0000
  C   C28       1.0  0.39197  0.89740  0.49982  1.0000
  C   C29       1.0  0.61396  0.90117  0.50005  1.0000
  C   C30       1.0  0.89020  0.00004  0.50012  1.0000
  C   C31       1.0  0.72381  0.09925  0.50007  1.0000
  C   C32       1.0  0.77968  0.00006  0.50014  1.0000
  C   C33       1.0  0.94581  0.09933  0.50010  1.0000
  C   C34       1.0  0.88871  0.19849  0.50014  1.0000
  C   C35       1.0  0.72520  0.29941  0.49990  1.0000
  C   C36       1.0  0.77932  0.19874  0.50007  1.0000
  C   C37       1.0  0.94237  0.29864  0.50018  1.0000
  C   C38       1.0  0.88770  0.39904  0.50018  1.0000
  C   C39       1.0  0.72338  0.49917  0.49985  1.0000
  C   C40       1.0  0.77887  0.39959  0.49999  1.0000
  C   C41       1.0  0.94075  0.49994  0.50025  1.0000
  C   C42       1.0  0.88700  0.60058  0.50016  1.0000
  C   C43       1.0  0.72461  0.70040  0.49996  1.0000
  C   C44       1.0  0.77798  0.59990  0.49999  1.0000
  C   C45       1.0  0.94182  0.70103  0.50016  1.0000
  C   C46       1.0  0.88842  0.80136  0.50010  1.0000
  C   C47       1.0  0.72388  0.90094  0.50011  1.0000
  C   C48       1.0  0.77915  0.80096  0.50008  1.0000
  C   C49       1.0  0.94554  0.90062  0.50009  1.0000
  C   C50       1.0  0.27153  0.30507  0.49923  1.0000
  C   C51       1.0  0.27066  0.69506  0.49960  1.0000
  C   C52       1.0  0.44980  0.20146  0.49935  1.0000
  C   C53       1.0  0.55932  0.59960  0.49947  1.0000
  C   C54       1.0  0.45063  0.79906  0.49978  1.0000
  N   N1        1.0  0.56305  0.39719  0.49926  1.0000
  N   N2        1.0  0.36344  0.49995  0.49847  1.0000
  Fe  Fe1       1.0  0.41333  0.35313  0.49877  1.0000
  Fe  Fe2       1.0  0.41469  0.64635  0.49907  1.0000
