data_image0
_chemical_formula_structural       C49N7CoFe
_chemical_formula_sum              "C49 N7 Co1 Fe1"
_cell_length_a       12.9809
_cell_length_b       12.2381
_cell_length_c       19.9979
_cell_angle_alpha    89.9997
_cell_angle_beta     89.9784
_cell_angle_gamma    89.9619

_space_group_name_H-M_alt    "P 1"
_space_group_IT_number       1

loop_
  _space_group_symop_operation_xyz
  'x, y, z'

loop_
  _atom_site_type_symbol
  _atom_site_label
  _atom_site_symmetry_multiplicity
  _atom_site_fract_x
  _atom_site_fract_y
  _atom_site_fract_z
  _atom_site_occupancy
  C   C1        1.0  0.22836  0.99996  0.49981  1.0000
  C   C2        1.0  0.05859  0.09976  0.49998  1.0000
  C   C3        1.0  0.11603  0.99990  0.49993  1.0000
  C   C4        1.0  0.28284  0.10452  0.49960  1.0000
  C   C5        1.0  0.22374  0.20571  0.49954  1.0000
  C   C6        1.0  0.05133  0.29855  0.50005  1.0000
  C   C7        1.0  0.11198  0.20113  0.49987  1.0000
  C   C8        1.0  0.21048  0.39926  0.49955  1.0000
  C   C9        1.0  0.04829  0.49970  0.50026  1.0000
  C   C10       1.0  0.10294  0.39944  0.50003  1.0000
  C   C11       1.0  0.26421  0.49924  0.49932  1.0000
  C   C12       1.0  0.21049  0.59954  0.49979  1.0000
  C   C13       1.0  0.05142  0.70089  0.50015  1.0000
  C   C14       1.0  0.10281  0.59972  0.50018  1.0000
  C   C15       1.0  0.22340  0.79421  0.49988  1.0000
  C   C16       1.0  0.05861  0.90016  0.50001  1.0000
  C   C17       1.0  0.11191  0.79865  0.50004  1.0000
  C   C18       1.0  0.28281  0.89528  0.49984  1.0000
  C   C19       1.0  0.55809  0.00022  0.50001  1.0000
  C   C20       1.0  0.39477  0.10489  0.49957  1.0000
  C   C21       1.0  0.44785  0.00031  0.49985  1.0000
  C   C22       1.0  0.61390  0.10034  0.49996  1.0000
  C   C23       1.0  0.55795  0.19997  0.49961  1.0000
  C   C24       1.0  0.61252  0.30244  0.49955  1.0000
  C   C25       1.0  0.60709  0.49953  0.49948  1.0000
  C   C26       1.0  0.61338  0.69800  0.49978  1.0000
  C   C27       1.0  0.55863  0.80066  0.49992  1.0000
  C   C28       1.0  0.39492  0.89584  0.49983  1.0000
  C   C29       1.0  0.61427  0.90024  0.50010  1.0000
  C   C30       1.0  0.89126  0.00003  0.50009  1.0000
  C   C31       1.0  0.72422  0.09967  0.50010  1.0000
  C   C32       1.0  0.78056  0.00015  0.50014  1.0000
  C   C33       1.0  0.94702  0.09986  0.50010  1.0000
  C   C34       1.0  0.88870  0.19877  0.50014  1.0000
  C   C35       1.0  0.72163  0.29955  0.49988  1.0000
  C   C36       1.0  0.77838  0.19930  0.50007  1.0000
  C   C37       1.0  0.94184  0.29909  0.50016  1.0000
  C   C38       1.0  0.88530  0.39946  0.50016  1.0000
  C   C39       1.0  0.71889  0.49980  0.49984  1.0000
  C   C40       1.0  0.77575  0.40010  0.49997  1.0000
  C   C41       1.0  0.93965  0.49978  0.50025  1.0000
  C   C42       1.0  0.88538  0.60021  0.50014  1.0000
  C   C43       1.0  0.72223  0.70062  0.49995  1.0000
  C   C44       1.0  0.77576  0.59960  0.49998  1.0000
  C   C45       1.0  0.94196  0.70055  0.50011  1.0000
  C   C46       1.0  0.88895  0.80118  0.50004  1.0000
  C   C47       1.0  0.72453  0.90065  0.50012  1.0000
  C   C48       1.0  0.77879  0.80089  0.50004  1.0000
  C   C49       1.0  0.94704  0.90013  0.50004  1.0000
  N   N1        1.0  0.27121  0.30685  0.49920  1.0000
  N   N2        1.0  0.27044  0.69249  0.49964  1.0000
  N   N3        1.0  0.45153  0.20182  0.49932  1.0000
  N   N4        1.0  0.55510  0.39957  0.49920  1.0000
  N   N5        1.0  0.36816  0.49818  0.49869  1.0000
  N   N6        1.0  0.55656  0.60053  0.49944  1.0000
  N   N7        1.0  0.45217  0.79921  0.49975  1.0000
  Co  Co1       1.0  0.41145  0.35442  0.49879  1.0000
  Fe  Fe1       1.0  0.41233  0.64438  0.49915  1.0000
