data_image0
_chemical_formula_structural       C49N6FeCu
_chemical_formula_sum              "C49 N6 Fe1 Cu1"
_cell_length_a       12.896
_cell_length_b       12.2715
_cell_length_c       20.0772
_cell_angle_alpha    89.9738
_cell_angle_beta     89.9186
_cell_angle_gamma    89.1137

_space_group_name_H-M_alt    "P 1"
_space_group_IT_number       1

loop_
  _space_group_symop_operation_xyz
  'x, y, z'

loop_
  _atom_site_type_symbol
  _atom_site_label
  _atom_site_symmetry_multiplicity
  _atom_site_fract_x
  _atom_site_fract_y
  _atom_site_fract_z
  _atom_site_occupancy
  C   C1        1.0  0.22083  0.99926  0.50013  1.0000
  C   C2        1.0  0.05213  0.10087  0.50016  1.0000
  C   C3        1.0  0.10951  0.00061  0.50014  1.0000
  C   C4        1.0  0.27498  0.09917  0.49997  1.0000
  C   C5        1.0  0.21777  0.19917  0.49992  1.0000
  C   C6        1.0  0.05196  0.30085  0.50007  1.0000
  C   C7        1.0  0.10698  0.20026  0.50012  1.0000
  C   C8        1.0  0.27239  0.29788  0.49956  1.0000
  C   C9        1.0  0.21792  0.39973  0.49960  1.0000
  C   C10       1.0  0.05537  0.50164  0.49991  1.0000
  C   C11       1.0  0.10850  0.40001  0.49987  1.0000
  C   C12       1.0  0.22551  0.59527  0.49964  1.0000
  C   C13       1.0  0.05792  0.70112  0.49985  1.0000
  C   C14       1.0  0.11409  0.59997  0.49979  1.0000
  C   C15       1.0  0.28375  0.69748  0.49976  1.0000
  C   C16       1.0  0.22410  0.79794  0.49994  1.0000
  C   C17       1.0  0.05522  0.90096  0.50000  1.0000
  C   C18       1.0  0.11264  0.80039  0.49991  1.0000
  C   C19       1.0  0.27818  0.89843  0.50007  1.0000
  C   C20       1.0  0.55343  0.00164  0.49991  1.0000
  C   C21       1.0  0.38580  0.10102  0.49982  1.0000
  C   C22       1.0  0.44291  0.00016  0.49996  1.0000
  C   C23       1.0  0.60643  0.10462  0.49981  1.0000
  C   C24       1.0  0.54939  0.20621  0.49963  1.0000
  C   C25       1.0  0.43755  0.20473  0.49951  1.0000
  C   C26       1.0  0.60479  0.30942  0.49989  1.0000
  C   C27       1.0  0.55776  0.79525  0.50015  1.0000
  C   C28       1.0  0.38930  0.89777  0.50005  1.0000
  C   C29       1.0  0.44264  0.79314  0.49999  1.0000
  C   C30       1.0  0.60938  0.89978  0.50004  1.0000
  C   C31       1.0  0.88609  0.00292  0.49996  1.0000
  C   C32       1.0  0.71800  0.10561  0.49991  1.0000
  C   C33       1.0  0.77466  0.00434  0.49992  1.0000
  C   C34       1.0  0.94075  0.10278  0.50008  1.0000
  C   C35       1.0  0.88453  0.20384  0.50013  1.0000
  C   C36       1.0  0.71763  0.30937  0.50021  1.0000
  C   C37       1.0  0.77274  0.20685  0.50008  1.0000
  C   C38       1.0  0.94118  0.30275  0.50017  1.0000
  C   C39       1.0  0.88764  0.40442  0.50025  1.0000
  C   C40       1.0  0.77634  0.40944  0.50044  1.0000
  C   C41       1.0  0.94529  0.50296  0.50014  1.0000
  C   C42       1.0  0.89132  0.60447  0.50019  1.0000
  C   C43       1.0  0.72281  0.70462  0.50038  1.0000
  C   C44       1.0  0.78190  0.60406  0.50050  1.0000
  C   C45       1.0  0.94702  0.70318  0.49997  1.0000
  C   C46       1.0  0.88969  0.80295  0.49996  1.0000
  C   C47       1.0  0.72070  0.90324  0.50001  1.0000
  C   C48       1.0  0.77834  0.80362  0.50010  1.0000
  C   C49       1.0  0.94372  0.90275  0.49993  1.0000
  N   N1        1.0  0.27570  0.49496  0.49948  1.0000
  N   N2        1.0  0.37943  0.29992  0.49919  1.0000
  N   N3        1.0  0.54919  0.40248  0.49988  1.0000
  N   N4        1.0  0.39007  0.69702  0.49978  1.0000
  N   N5        1.0  0.61563  0.70053  0.50040  1.0000
  N   N6        1.0  0.72882  0.50908  0.50076  1.0000
  Fe  Fe1       1.0  0.41982  0.45167  0.49914  1.0000
  Cu  Cu1       1.0  0.58235  0.54534  0.50060  1.0000
