data_image0
_chemical_formula_structural       C50N6FeZn
_chemical_formula_sum              "C50 N6 Fe1 Zn1"
_cell_length_a       12.81
_cell_length_b       12.4
_cell_length_c       20
_cell_angle_alpha    90
_cell_angle_beta     90
_cell_angle_gamma    90

_space_group_name_H-M_alt    "P 1"
_space_group_IT_number       1

loop_
  _space_group_symop_operation_xyz
  'x, y, z'

loop_
  _atom_site_type_symbol
  _atom_site_label
  _atom_site_symmetry_multiplicity
  _atom_site_fract_x
  _atom_site_fract_y
  _atom_site_fract_z
  _atom_site_occupancy
  C   C1        1.0  0.22161  0.99860  0.50000  1.0000
  C   C2        1.0  0.05456  0.09894  0.49998  1.0000
  C   C3        1.0  0.11048  0.99939  0.50001  1.0000
  C   C4        1.0  0.27719  0.09646  0.49993  1.0000
  C   C5        1.0  0.22098  0.19472  0.49997  1.0000
  C   C6        1.0  0.05573  0.29935  0.49999  1.0000
  C   C7        1.0  0.10988  0.19818  0.49997  1.0000
  C   C8        1.0  0.27749  0.29194  0.50011  1.0000
  C   C9        1.0  0.06238  0.49810  0.50005  1.0000
  C   C10       1.0  0.11674  0.39579  0.50011  1.0000
  C   C11       1.0  0.05783  0.69928  0.50001  1.0000
  C   C12       1.0  0.11751  0.60102  0.50004  1.0000
  C   C13       1.0  0.27805  0.70285  0.50001  1.0000
  C   C14       1.0  0.22308  0.80134  0.50001  1.0000
  C   C15       1.0  0.05575  0.89944  0.50002  1.0000
  C   C16       1.0  0.11161  0.80007  0.50001  1.0000
  C   C17       1.0  0.27810  0.90014  0.50002  1.0000
  C   C18       1.0  0.55551  0.99897  0.49990  1.0000
  C   C19       1.0  0.38863  0.09722  0.49987  1.0000
  C   C20       1.0  0.44481  0.99880  0.49993  1.0000
  C   C21       1.0  0.61046  0.09744  0.49987  1.0000
  C   C22       1.0  0.55550  0.19600  0.49997  1.0000
  C   C23       1.0  0.44237  0.19649  0.49986  1.0000
  C   C24       1.0  0.55499  0.60785  0.49991  1.0000
  C   C25       1.0  0.39094  0.70279  0.49998  1.0000
  C   C26       1.0  0.61205  0.70476  0.49979  1.0000
  C   C27       1.0  0.55624  0.80287  0.49989  1.0000
  C   C28       1.0  0.38860  0.90036  0.50000  1.0000
  C   C29       1.0  0.44470  0.80168  0.49996  1.0000
  C   C30       1.0  0.61193  0.90054  0.49994  1.0000
  C   C31       1.0  0.88888  0.99969  0.50001  1.0000
  C   C32       1.0  0.72200  0.09913  0.49995  1.0000
  C   C33       1.0  0.77779  0.99981  0.49999  1.0000
  C   C34       1.0  0.94315  0.09993  0.49996  1.0000
  C   C35       1.0  0.88786  0.20042  0.49993  1.0000
  C   C36       1.0  0.71673  0.29807  0.50017  1.0000
  C   C37       1.0  0.77618  0.19981  0.49995  1.0000
  C   C38       1.0  0.94303  0.30087  0.49996  1.0000
  C   C39       1.0  0.88624  0.40062  0.50001  1.0000
  C   C40       1.0  0.71684  0.50387  0.50005  1.0000
  C   C41       1.0  0.77099  0.40120  0.50011  1.0000
  C   C42       1.0  0.94742  0.49865  0.49999  1.0000
  C   C43       1.0  0.89061  0.59858  0.49995  1.0000
  C   C44       1.0  0.72340  0.70115  0.49987  1.0000
  C   C45       1.0  0.77799  0.60027  0.49991  1.0000
  C   C46       1.0  0.94595  0.69879  0.49998  1.0000
  C   C47       1.0  0.89045  0.79923  0.50001  1.0000
  C   C48       1.0  0.72309  0.89982  0.49998  1.0000
  C   C49       1.0  0.77897  0.80024  0.49997  1.0000
  C   C50       1.0  0.94466  0.89955  0.50003  1.0000
  N   N1        1.0  0.22610  0.38789  0.50034  1.0000
  N   N2        1.0  0.22488  0.60648  0.50005  1.0000
  N   N3        1.0  0.38600  0.29245  0.49999  1.0000
  N   N4        1.0  0.60946  0.29141  0.50046  1.0000
  N   N5        1.0  0.60795  0.51324  0.50020  1.0000
  N   N6        1.0  0.44612  0.60538  0.50001  1.0000
  Fe  Fe1       1.0  0.33547  0.49590  0.50016  1.0000
  Zn  Zn1       1.0  0.50238  0.40178  0.50240  1.0000
