data_image0
_chemical_formula_structural       C49N7NiFe
_chemical_formula_sum              "C49 N7 Ni1 Fe1"
_cell_length_a       12.9741
_cell_length_b       12.2383
_cell_length_c       20.008
_cell_angle_alpha    89.9978
_cell_angle_beta     89.988
_cell_angle_gamma    89.9546

_space_group_name_H-M_alt    "P 1"
_space_group_IT_number       1

loop_
  _space_group_symop_operation_xyz
  'x, y, z'

loop_
  _atom_site_type_symbol
  _atom_site_label
  _atom_site_symmetry_multiplicity
  _atom_site_fract_x
  _atom_site_fract_y
  _atom_site_fract_z
  _atom_site_occupancy
  C   C1        1.0  0.22828  0.99997  0.49980  1.0000
  C   C2        1.0  0.05856  0.09979  0.49997  1.0000
  C   C3        1.0  0.11599  0.99989  0.49993  1.0000
  C   C4        1.0  0.28278  0.10442  0.49959  1.0000
  C   C5        1.0  0.22388  0.20564  0.49956  1.0000
  C   C6        1.0  0.05139  0.29859  0.50004  1.0000
  C   C7        1.0  0.11190  0.20112  0.49987  1.0000
  C   C8        1.0  0.21085  0.39902  0.49961  1.0000
  C   C9        1.0  0.04841  0.49958  0.50025  1.0000
  C   C10       1.0  0.10313  0.39940  0.50005  1.0000
  C   C11       1.0  0.26488  0.49912  0.49934  1.0000
  C   C12       1.0  0.21062  0.59963  0.49980  1.0000
  C   C13       1.0  0.05154  0.70085  0.50014  1.0000
  C   C14       1.0  0.10308  0.59968  0.50017  1.0000
  C   C15       1.0  0.22346  0.79429  0.49986  1.0000
  C   C16       1.0  0.05859  0.90018  0.50002  1.0000
  C   C17       1.0  0.11197  0.79863  0.50004  1.0000
  C   C18       1.0  0.28278  0.89532  0.49983  1.0000
  C   C19       1.0  0.55807  0.00020  0.50001  1.0000
  C   C20       1.0  0.39471  0.10505  0.49955  1.0000
  C   C21       1.0  0.44784  0.00028  0.49985  1.0000
  C   C22       1.0  0.61374  0.10029  0.49995  1.0000
  C   C23       1.0  0.55770  0.20002  0.49960  1.0000
  C   C24       1.0  0.61223  0.30242  0.49956  1.0000
  C   C25       1.0  0.60671  0.49952  0.49950  1.0000
  C   C26       1.0  0.61348  0.69819  0.49980  1.0000
  C   C27       1.0  0.55875  0.80061  0.49993  1.0000
  C   C28       1.0  0.39487  0.89589  0.49983  1.0000
  C   C29       1.0  0.61429  0.90020  0.50011  1.0000
  C   C30       1.0  0.89119  0.00005  0.50008  1.0000
  C   C31       1.0  0.72406  0.09969  0.50009  1.0000
  C   C32       1.0  0.78047  0.00016  0.50013  1.0000
  C   C33       1.0  0.94694  0.09988  0.50008  1.0000
  C   C34       1.0  0.88861  0.19883  0.50012  1.0000
  C   C35       1.0  0.72146  0.29960  0.49989  1.0000
  C   C36       1.0  0.77823  0.19933  0.50007  1.0000
  C   C37       1.0  0.94176  0.29914  0.50014  1.0000
  C   C38       1.0  0.88525  0.39947  0.50015  1.0000
  C   C39       1.0  0.71872  0.49979  0.49985  1.0000
  C   C40       1.0  0.77557  0.40016  0.49997  1.0000
  C   C41       1.0  0.93978  0.49971  0.50023  1.0000
  C   C42       1.0  0.88541  0.60013  0.50012  1.0000
  C   C43       1.0  0.72232  0.70063  0.49995  1.0000
  C   C44       1.0  0.77577  0.59955  0.49998  1.0000
  C   C45       1.0  0.94206  0.70051  0.50010  1.0000
  C   C46       1.0  0.88904  0.80114  0.50003  1.0000
  C   C47       1.0  0.72451  0.90061  0.50012  1.0000
  C   C48       1.0  0.77884  0.80085  0.50004  1.0000
  C   C49       1.0  0.94704  0.90014  0.50004  1.0000
  N   N1        1.0  0.27100  0.30657  0.49930  1.0000
  N   N2        1.0  0.27065  0.69247  0.49962  1.0000
  N   N3        1.0  0.45130  0.20174  0.49928  1.0000
  N   N4        1.0  0.55515  0.39968  0.49925  1.0000
  N   N5        1.0  0.36812  0.49930  0.49862  1.0000
  N   N6        1.0  0.55637  0.60071  0.49945  1.0000
  N   N7        1.0  0.45207  0.79910  0.49974  1.0000
  Ni  Ni1       1.0  0.41162  0.35362  0.49887  1.0000
  Fe  Fe1       1.0  0.41264  0.64458  0.49911  1.0000
