data_image0
_chemical_formula_structural       C52N5NiFe
_chemical_formula_sum              "C52 N5 Ni1 Fe1"
_cell_length_a       12.81
_cell_length_b       12.4
_cell_length_c       20
_cell_angle_alpha    90
_cell_angle_beta     90
_cell_angle_gamma    90

_space_group_name_H-M_alt    "P 1"
_space_group_IT_number       1

loop_
  _space_group_symop_operation_xyz
  'x, y, z'

loop_
  _atom_site_type_symbol
  _atom_site_label
  _atom_site_symmetry_multiplicity
  _atom_site_fract_x
  _atom_site_fract_y
  _atom_site_fract_z
  _atom_site_occupancy
  C   C1        1.0  0.22260  0.00206  0.50030  1.0000
  C   C2        1.0  0.05742  0.10205  0.49902  1.0000
  C   C3        1.0  0.11136  0.00137  0.49919  1.0000
  C   C4        1.0  0.27819  0.10319  0.50265  1.0000
  C   C5        1.0  0.22484  0.20500  0.50494  1.0000
  C   C6        1.0  0.05663  0.30238  0.49947  1.0000
  C   C7        1.0  0.11291  0.20304  0.50125  1.0000
  C   C8        1.0  0.28128  0.30607  0.51036  1.0000
  C   C9        1.0  0.22174  0.40665  0.50976  1.0000
  C   C10       1.0  0.05406  0.50309  0.49964  1.0000
  C   C11       1.0  0.11063  0.40328  0.50168  1.0000
  C   C12       1.0  0.22174  0.60209  0.50469  1.0000
  C   C13       1.0  0.05361  0.70163  0.49687  1.0000
  C   C14       1.0  0.11000  0.60303  0.49945  1.0000
  C   C15       1.0  0.28212  0.70118  0.50046  1.0000
  C   C16       1.0  0.22360  0.80015  0.49861  1.0000
  C   C17       1.0  0.05594  0.90095  0.49765  1.0000
  C   C18       1.0  0.11117  0.80048  0.49771  1.0000
  C   C19       1.0  0.27735  0.90224  0.49920  1.0000
  C   C20       1.0  0.55522  0.00162  0.49795  1.0000
  C   C21       1.0  0.38892  0.10181  0.50169  1.0000
  C   C22       1.0  0.44438  0.00215  0.49931  1.0000
  C   C23       1.0  0.61228  0.09957  0.49770  1.0000
  C   C24       1.0  0.55708  0.19794  0.50067  1.0000
  C   C25       1.0  0.39420  0.30172  0.51122  1.0000
  C   C26       1.0  0.44592  0.20054  0.50377  1.0000
  C   C27       1.0  0.61467  0.29505  0.50019  1.0000
  C   C28       1.0  0.56053  0.39187  0.50755  1.0000
  C   C29       1.0  0.55464  0.80464  0.49664  1.0000
  C   C30       1.0  0.38867  0.90251  0.49912  1.0000
  C   C31       1.0  0.44311  0.80334  0.49843  1.0000
  C   C32       1.0  0.61038  0.90269  0.49677  1.0000
  C   C33       1.0  0.89003  0.00075  0.49613  1.0000
  C   C34       1.0  0.72348  0.10006  0.49596  1.0000
  C   C35       1.0  0.77848  0.00033  0.49568  1.0000
  C   C36       1.0  0.94611  0.10095  0.49685  1.0000
  C   C37       1.0  0.89092  0.20074  0.49612  1.0000
  C   C38       1.0  0.72485  0.29822  0.49685  1.0000
  C   C39       1.0  0.77990  0.19937  0.49565  1.0000
  C   C40       1.0  0.94505  0.30157  0.49699  1.0000
  C   C41       1.0  0.88850  0.40135  0.49703  1.0000
  C   C42       1.0  0.71718  0.49725  0.49950  1.0000
  C   C43       1.0  0.77717  0.39971  0.49764  1.0000
  C   C44       1.0  0.94208  0.50233  0.49756  1.0000
  C   C45       1.0  0.88359  0.60117  0.49658  1.0000
  C   C46       1.0  0.71479  0.70177  0.49614  1.0000
  C   C47       1.0  0.76994  0.60017  0.49704  1.0000
  C   C48       1.0  0.94124  0.70044  0.49606  1.0000
  C   C49       1.0  0.88657  0.80039  0.49602  1.0000
  C   C50       1.0  0.72168  0.90155  0.49594  1.0000
  C   C51       1.0  0.77460  0.80031  0.49598  1.0000
  C   C52       1.0  0.94402  0.90026  0.49652  1.0000
  N   N1        1.0  0.27025  0.50461  0.51681  1.0000
  N   N2        1.0  0.45562  0.39298  0.51955  1.0000
  N   N3        1.0  0.60950  0.49029  0.50408  1.0000
  N   N4        1.0  0.39285  0.70325  0.49962  1.0000
  N   N5        1.0  0.60635  0.70660  0.49514  1.0000
  Ni  Ni1       1.0  0.39722  0.51231  0.56294  1.0000
  Fe  Fe1       1.0  0.50618  0.59746  0.49752  1.0000
